New Line.l(r:p12udt77lv-p12ulv165) Units=km Length=0.0247068 bus1=p12udt77lv.1.2 bus2=p12ulv165.1.2 switch=n enabled=y phases=2 Linecode=1P_OH_AL_2/0_Rucina_2

New Line.l(r:p12udt77lv-p12ulv265) Units=km Length=0.00600025 bus1=p12udt77lv.1.2 bus2=p12ulv265.1.2 switch=n enabled=y phases=2 Linecode=1P_OH_AL_2/0_Rucina_2

New Line.l(r:p12udt77lv-p12ulv268) Units=km Length=0.0332895 bus1=p12udt77lv.1.2 bus2=p12ulv268.1.2 switch=n enabled=y phases=2 Linecode=1P_OH_AL_4/0_Zuzara_2

New Line.l(r:p12udt77lv-p12ulv309) Units=km Length=0.0146626 bus1=p12udt77lv.1.2 bus2=p12ulv309.1.2 switch=n enabled=y phases=2 Linecode=1P_OH_AL_2/0_Rucina_2

New Line.l(r:p12udm312-p12ulv176) Units=km Length=0.0172785 bus1=p12udm312.1.2 bus2=p12ulv176.1.2 switch=n enabled=y phases=2 Linecode=1P_UG_AL_1/0_Brenau_2

New Line.l(r:p12udm312-p12udt84lv) Units=km Length=0.0183925 bus1=p12udt84lv.1.2 bus2=p12udm312.1.2 switch=n enabled=y phases=2 Linecode=1P_UG_AL_1/0_Brenau_2

New Line.l(r:p12udm313-p12ulv197) Units=km Length=0.0170436 bus1=p12udm313.1.2 bus2=p12ulv197.1.2 switch=n enabled=y phases=2 Linecode=1P_UG_AL_1/0_Brenau_2

New Line.l(r:p12udm313-p12udt84lv) Units=km Length=0.0183936 bus1=p12udt84lv.1.2 bus2=p12udm313.1.2 switch=n enabled=y phases=2 Linecode=1P_UG_AL_1/0_Brenau_2

New Line.l(r:p12udm355-p12ulv288) Units=km Length=0.0121065 bus1=p12udm355.1.2 bus2=p12ulv288.1.2 switch=n enabled=y phases=2 Linecode=1P_UG_AL_1/0_Brenau_2

New Line.l(r:p12udm354-p12ulv206) Units=km Length=0.011137400000000002 bus1=p12udm354.1.2 bus2=p12ulv206.1.2 switch=n enabled=y phases=2 Linecode=1P_UG_AL_1/0_Brenau_2

New Line.l(r:p12udm354-p12udm355) Units=km Length=0.00998008 bus1=p12udm355.1.2 bus2=p12udm354.1.2 switch=n enabled=y phases=2 Linecode=1P_UG_AL_1/0_Brenau_2

New Line.l(r:p12udm355-p12udt96lv) Units=km Length=0.0653463 bus1=p12udt96lv.1.2 bus2=p12udm355.1.2 switch=n enabled=y phases=2 Linecode=1P_OH_AL_4/0_Zuzara_2

New Line.l(r:p12udm356-p12ulv13628) Units=km Length=0.00909065 bus1=p12udm356.1.2 bus2=p12ulv13628.1.2 switch=n enabled=y phases=2 Linecode=1P_OH_AL_2/0_Rucina_2

New Line.l(r:p12udm353-p12ulv200) Units=km Length=0.0256586 bus1=p12udm353.1.2 bus2=p12ulv200.1.2 switch=n enabled=y phases=2 Linecode=1P_OH_AL_2/0_Rucina_2

New Line.l(r:p12udm353-p12udm356) Units=km Length=0.0154248 bus1=p12udm356.1.2 bus2=p12udm353.1.2 switch=n enabled=y phases=2 Linecode=1P_OH_AL_2/0_Rucina_2

New Line.l(r:p12udm356-p12udt96lv) Units=km Length=0.0275207 bus1=p12udt96lv.1.2 bus2=p12udm356.1.2 switch=n enabled=y phases=2 Linecode=1P_OH_AL_4/0_Zuzara_2

New Line.l(r:p12udm361-p12ulv210) Units=km Length=0.05879720000000001 bus1=p12udm361.1.2 bus2=p12ulv210.1.2 switch=n enabled=y phases=2 Linecode=1P_UG_AL_1/0_Brenau_2

New Line.l(r:p12udm361-p12udt99lv) Units=km Length=0.00834437 bus1=p12udt99lv.1.2 bus2=p12udm361.1.2 switch=n enabled=y phases=2 Linecode=1P_UG_AL_1/0_Brenau_2

New Line.l(r:p12udm362-p12ulv297) Units=km Length=0.0466388 bus1=p12udm362.1.2 bus2=p12ulv297.1.2 switch=n enabled=y phases=2 Linecode=1P_UG_AL_1/0_Brenau_2

New Line.l(r:p12udm362-p12udt99lv) Units=km Length=0.00835843 bus1=p12udt99lv.1.2 bus2=p12udm362.1.2 switch=n enabled=y phases=2 Linecode=1P_UG_AL_1/0_Brenau_2

New Line.l(r:p12udm363-p12ulv214) Units=km Length=0.00774128 bus1=p12udm363.1.2 bus2=p12ulv214.1.2 switch=n enabled=y phases=2 Linecode=1P_UG_AL_1/0_Brenau_2

New Line.l(r:p12udm366-p12ulv324) Units=km Length=0.00503907 bus1=p12udm366.1.2 bus2=p12ulv324.1.2 switch=n enabled=y phases=2 Linecode=1P_UG_AL_1/0_Brenau_2

New Line.l(r:p12udm363-p12udm366) Units=km Length=0.00678405 bus1=p12udm363.1.2 bus2=p12udm366.1.2 switch=n enabled=y phases=2 Linecode=1P_UG_AL_1/0_Brenau_2

New Line.l(r:p12udm363-p12udt100lv) Units=km Length=0.0067833 bus1=p12udt100lv.1.2 bus2=p12udm363.1.2 switch=n enabled=y phases=2 Linecode=1P_UG_AL_1/0_Brenau_2

New Line.l(r:p12udm365-p12ulv295) Units=km Length=0.00796302 bus1=p12udm365.1.2 bus2=p12ulv295.1.2 switch=n enabled=y phases=2 Linecode=1P_UG_AL_1/0_Brenau_2

New Line.l(r:p12udm364-p12ulv261) Units=km Length=0.0123551 bus1=p12udm364.1.2 bus2=p12ulv261.1.2 switch=n enabled=y phases=2 Linecode=1P_UG_AL_1/0_Brenau_2

New Line.l(r:p12udm364-p12udm365) Units=km Length=0.0175548 bus1=p12udm365.1.2 bus2=p12udm364.1.2 switch=n enabled=y phases=2 Linecode=1P_UG_AL_1/0_Brenau_2

New Line.l(r:p12udm365-p12udt100lv) Units=km Length=0.00877771 bus1=p12udt100lv.1.2 bus2=p12udm365.1.2 switch=n enabled=y phases=2 Linecode=1P_UG_AL_1/0_Brenau_2

New Line.l(r:p12udt120lv-p12ulv293) Units=km Length=0.029282 bus1=p12udt120lv.1.2 bus2=p12ulv293.1.2 switch=n enabled=y phases=2 Linecode=1P_UG_AL_1/0_Brenau_2

New Line.l(r:p12udt120lv-p12ulv16402) Units=km Length=0.0399014 bus1=p12udt120lv.1.2 bus2=p12ulv16402.1.2 switch=n enabled=y phases=2 Linecode=1P_UG_AL_1/0_Brenau_2

New Line.l(r:p12udt120lv-p12ulv16416) Units=km Length=0.0259905 bus1=p12udt120lv.1.2 bus2=p12ulv16416.1.2 switch=n enabled=y phases=2 Linecode=1P_UG_AL_1/0_Brenau_2

New Line.l(r:p12udt120lv-p12ulv16451) Units=km Length=0.00974164 bus1=p12udt120lv.1.2 bus2=p12ulv16451.1.2 switch=n enabled=y phases=2 Linecode=1P_UG_AL_1/0_Brenau_2

New Line.l(r:p12udt122lv-p12ulv303) Units=km Length=0.0185315 bus1=p12udt122lv.1.2 bus2=p12ulv303.1.2 switch=n enabled=y phases=2 Linecode=1P_OH_AL_2/0_Rucina_2

New Line.l(r:p12udt122lv-p12ulv338) Units=km Length=0.0185315 bus1=p12udt122lv.1.2 bus2=p12ulv338.1.2 switch=n enabled=y phases=2 Linecode=1P_OH_AL_2/0_Rucina_2

New Line.l(r:p12udt320lv-p12ulv897) Units=km Length=0.001 bus1=p12udt320lv.1.2 bus2=p12ulv897.1.2 switch=n enabled=y phases=2 Linecode=1P_OH_AL_4_Periwinkle_2

New Line.l(r:p12udt826lv-p12ulv2732) Units=km Length=0.0457209 bus1=p12udt826lv.1.2 bus2=p12ulv2732.1.2 switch=n enabled=y phases=2 Linecode=1P_UG_AL_2/0_Converse_2

New Line.l(r:p12udt826lv-p12ulv23299) Units=km Length=0.0457209 bus1=p12udt826lv.1.2 bus2=p12ulv23299.1.2 switch=n enabled=y phases=2 Linecode=1P_UG_AL_4/0_Sweetbriar_2

New Line.l(r:p12udt1242lv-p12ulv4436) Units=km Length=0.0303071 bus1=p12udt1242lv.1.2 bus2=p12ulv4436.1.2 switch=n enabled=y phases=2 Linecode=1P_OH_AL_4/0_Zuzara_2

New Line.l(r:p12udt1242lv-p12ulv4444) Units=km Length=0.0316805 bus1=p12udt1242lv.1.2 bus2=p12ulv4444.1.2 switch=n enabled=y phases=2 Linecode=1P_OH_AL_4/0_Zuzara_2

New Line.l(r:p12udt1242lv-p12ulv4446) Units=km Length=0.00732521 bus1=p12udt1242lv.1.2 bus2=p12ulv4446.1.2 switch=n enabled=y phases=2 Linecode=1P_OH_AL_2/0_Rucina_2

New Line.l(r:p12udt1242lv-p12ulv4455) Units=km Length=0.03960700000000001 bus1=p12udt1242lv.1.2 bus2=p12ulv4455.1.2 switch=n enabled=y phases=2 Linecode=1P_OH_AL_4/0_Zuzara_2

New Line.l(r:p12udt1242lv-p12ulv4456) Units=km Length=0.0867199 bus1=p12udt1242lv.1.2 bus2=p12ulv4456.1.2 switch=n enabled=y phases=2 Linecode=1P_OH_AL_4/0_Zuzara_2

New Line.l(r:p12udt1242lv-p12ulv4461) Units=km Length=0.0306259 bus1=p12udt1242lv.1.2 bus2=p12ulv4461.1.2 switch=n enabled=y phases=2 Linecode=1P_OH_AL_4/0_Zuzara_2

New Line.l(r:p12udt1242lv-p12ulv30434) Units=km Length=0.0590714 bus1=p12udt1242lv.1.2 bus2=p12ulv30434.1.2 switch=n enabled=y phases=2 Linecode=1P_OH_AL_4/0_Zuzara_2

New Line.l(r:p12udt1243lv-p12ulv4437) Units=km Length=0.00350852 bus1=p12udt1243lv.1.2 bus2=p12ulv4437.1.2 switch=n enabled=y phases=2 Linecode=1P_OH_AL_4_Periwinkle_2

New Line.l(r:p12udt1243lv-p12ulv4439) Units=km Length=0.0164819 bus1=p12udt1243lv.1.2 bus2=p12ulv4439.1.2 switch=n enabled=y phases=2 Linecode=1P_OH_AL_2/0_Rucina_2

New Line.l(r:p12udt1243lv-p12ulv4445) Units=km Length=0.0198775 bus1=p12udt1243lv.1.2 bus2=p12ulv4445.1.2 switch=n enabled=y phases=2 Linecode=1P_OH_AL_2/0_Rucina_2

New Line.l(r:p12udt1244lv-p12ulv4438) Units=km Length=0.001 bus1=p12udt1244lv.1.2 bus2=p12ulv4438.1.2 switch=n enabled=y phases=2 Linecode=1P_OH_AL_4_Periwinkle_2

New Line.l(r:p12udt1245lv-p12ulv4440) Units=km Length=0.0859384 bus1=p12udt1245lv.1.2 bus2=p12ulv4440.1.2 switch=n enabled=y phases=2 Linecode=1P_OH_AL_4/0_Zuzara_2

New Line.l(r:p12udt1246lv-p12ulv4441) Units=km Length=0.0383895 bus1=p12udt1246lv.1.2 bus2=p12ulv4441.1.2 switch=n enabled=y phases=2 Linecode=1P_OH_AL_4/0_Zuzara_2

New Line.l(r:p12udt1246lv-p12ulv4452) Units=km Length=0.0383895 bus1=p12udt1246lv.1.2 bus2=p12ulv4452.1.2 switch=n enabled=y phases=2 Linecode=1P_OH_AL_4/0_Zuzara_2

New Line.l(r:p12udt1247lv-p12ulv4442) Units=km Length=0.0200411 bus1=p12udt1247lv.1.2 bus2=p12ulv4442.1.2 switch=n enabled=y phases=2 Linecode=1P_OH_AL_2/0_Rucina_2

New Line.l(r:p12udt1247lv-p12ulv4447) Units=km Length=0.0391515 bus1=p12udt1247lv.1.2 bus2=p12ulv4447.1.2 switch=n enabled=y phases=2 Linecode=1P_OH_AL_4/0_Zuzara_2

New Line.l(r:p12udt1247lv-p12ulv4458) Units=km Length=0.0211417 bus1=p12udt1247lv.1.2 bus2=p12ulv4458.1.2 switch=n enabled=y phases=2 Linecode=1P_OH_AL_2/0_Rucina_2

New Line.l(r:p12udt1249lv-p12ulv4448) Units=km Length=0.001 bus1=p12udt1249lv.1.2 bus2=p12ulv4448.1.2 switch=n enabled=y phases=2 Linecode=1P_OH_AL_4_Periwinkle_2

New Line.l(r:p12udt1250lv-p12ulv4449) Units=km Length=0.0111235 bus1=p12udt1250lv.1.2 bus2=p12ulv4449.1.2 switch=n enabled=y phases=2 Linecode=1P_OH_AL_2/0_Rucina_2

New Line.l(r:p12udt1250lv-p12ulv4454) Units=km Length=0.0111235 bus1=p12udt1250lv.1.2 bus2=p12ulv4454.1.2 switch=n enabled=y phases=2 Linecode=1P_OH_AL_2/0_Rucina_2

New Line.l(r:p12udt1253lv-p12ulv4453) Units=km Length=0.0171683 bus1=p12udt1253lv.1.2 bus2=p12ulv4453.1.2 switch=n enabled=y phases=2 Linecode=1P_OH_AL_2/0_Rucina_2

New Line.l(r:p12udt1253lv-p12ulv4460) Units=km Length=0.0171683 bus1=p12udt1253lv.1.2 bus2=p12ulv4460.1.2 switch=n enabled=y phases=2 Linecode=1P_OH_AL_2/0_Rucina_2

New Line.l(r:p12udt1266lv-p12ulv4479) Units=km Length=0.103924 bus1=p12udt1266lv.1.2 bus2=p12ulv4479.1.2 switch=n enabled=y phases=2 Linecode=1P_OH_AL_4/0_Zuzara_2

New Line.l(r:p12udt1266lv-p12ulv4500) Units=km Length=0.0199846 bus1=p12udt1266lv.1.2 bus2=p12ulv4500.1.2 switch=n enabled=y phases=2 Linecode=1P_OH_AL_2/0_Rucina_2

New Line.l(r:p12udt1266lv-p12ulv4518) Units=km Length=0.0409867 bus1=p12udt1266lv.1.2 bus2=p12ulv4518.1.2 switch=n enabled=y phases=2 Linecode=1P_OH_AL_4/0_Zuzara_2

New Line.l(r:p12udt1266lv-p12ulv4524) Units=km Length=0.0143401 bus1=p12udt1266lv.1.2 bus2=p12ulv4524.1.2 switch=n enabled=y phases=2 Linecode=1P_OH_AL_2/0_Rucina_2

New Line.l(r:p12udt1266lv-p12ulv4547) Units=km Length=0.0655869 bus1=p12udt1266lv.1.2 bus2=p12ulv4547.1.2 switch=n enabled=y phases=2 Linecode=1P_OH_AL_4/0_Zuzara_2

New Line.l(r:p12udt2644lv-p12ulv9330) Units=km Length=0.0875105 bus1=p12udt2644lv.1.2 bus2=p12ulv9330.1.2 switch=n enabled=y phases=2 Linecode=1P_OH_AL_4/0_Zuzara_2

New Line.l(r:p12udt2644lv-p12ulv9340) Units=km Length=0.0526426 bus1=p12udt2644lv.1.2 bus2=p12ulv9340.1.2 switch=n enabled=y phases=2 Linecode=1P_OH_AL_4/0_Zuzara_2

New Line.l(r:p12udm10854-p12ulv9314) Units=km Length=0.0175866 bus1=p12udm10854.1.2 bus2=p12ulv9314.1.2 switch=n enabled=y phases=2 Linecode=1P_OH_AL_2/0_Rucina_2

New Line.l(r:p12udm10854-p12udt2644lv) Units=km Length=0.019824 bus1=p12udt2644lv.1.2 bus2=p12udm10854.1.2 switch=n enabled=y phases=2 Linecode=1P_OH_AL_2/0_Rucina_2

New Line.l(r:p12udm10857-p12ulv9342) Units=km Length=0.0494252 bus1=p12udm10857.1.2 bus2=p12ulv9342.1.2 switch=n enabled=y phases=2 Linecode=1P_OH_AL_4/0_Zuzara_2

New Line.l(r:p12udm10857-p12udt2644lv) Units=km Length=0.019824 bus1=p12udt2644lv.1.2 bus2=p12udm10857.1.2 switch=n enabled=y phases=2 Linecode=1P_OH_AL_2/0_Rucina_2

New Line.l(r:p12udt2651lv-p12ulv9324) Units=km Length=0.0300118 bus1=p12udt2651lv.1.2 bus2=p12ulv9324.1.2 switch=n enabled=y phases=2 Linecode=1P_OH_AL_4/0_Zuzara_2

New Line.l(r:p12udt2651lv-p12ulv9328) Units=km Length=0.06963980000000002 bus1=p12udt2651lv.1.2 bus2=p12ulv9328.1.2 switch=n enabled=y phases=2 Linecode=1P_OH_AL_4/0_Zuzara_2

New Line.l(r:p12udt2651lv-p12ulv9348) Units=km Length=0.0553101 bus1=p12udt2651lv.1.2 bus2=p12ulv9348.1.2 switch=n enabled=y phases=2 Linecode=1P_OH_AL_4/0_Zuzara_2

New Line.l(r:p12udt2654lv-p12ulv9329) Units=km Length=0.0658543 bus1=p12udt2654lv.1.2 bus2=p12ulv9329.1.2 switch=n enabled=y phases=2 Linecode=1P_OH_AL_4/0_Zuzara_2

New Line.l(r:p12udt2658lv-p12ulv9349) Units=km Length=0.001 bus1=p12udt2658lv.1.2 bus2=p12ulv9349.1.2 switch=n enabled=y phases=2 Linecode=1P_OH_AL_4_Periwinkle_2

New Line.l(r:p12udt2659lv-p12ulv9352) Units=km Length=0.001 bus1=p12udt2659lv.1.2 bus2=p12ulv9352.1.2 switch=n enabled=y phases=2 Linecode=1P_OH_AL_4_Periwinkle_2

New Line.l(r:p12udt2661lv-p12ulv9355) Units=km Length=0.0491278 bus1=p12udt2661lv.1.2 bus2=p12ulv9355.1.2 switch=n enabled=y phases=2 Linecode=1P_OH_AL_4/0_Zuzara_2

New Line.l(r:p12udt2670lv-p12ulv9459) Units=km Length=0.0521585 bus1=p12udt2670lv.1.2 bus2=p12ulv9459.1.2 switch=n enabled=y phases=2 Linecode=1P_OH_AL_4/0_Zuzara_2

New Line.l(r:p12udt2670lv-p12ulv9556) Units=km Length=0.0224303 bus1=p12udt2670lv.1.2 bus2=p12ulv9556.1.2 switch=n enabled=y phases=2 Linecode=1P_OH_AL_2/0_Rucina_2

New Line.l(r:p12udt2670lv-p12ulv9569) Units=km Length=0.0630892 bus1=p12udt2670lv.1.2 bus2=p12ulv9569.1.2 switch=n enabled=y phases=2 Linecode=1P_OH_AL_4/0_Zuzara_2

New Line.l(r:p12udm10946-p12ulv9367) Units=km Length=0.00546202 bus1=p12udm10946.1.2 bus2=p12ulv9367.1.2 switch=n enabled=y phases=2 Linecode=1P_OH_AL_2/0_Rucina_2

New Line.l(r:p12udm10947-p12ulv9424) Units=km Length=0.00707001 bus1=p12udm10947.1.2 bus2=p12ulv9424.1.2 switch=n enabled=y phases=2 Linecode=1P_OH_AL_2/0_Rucina_2

New Line.l(r:p12udm10952-p12ulv9619) Units=km Length=0.0260632 bus1=p12udm10952.1.2 bus2=p12ulv9619.1.2 switch=n enabled=y phases=2 Linecode=1P_OH_AL_2/0_Rucina_2

New Line.l(r:p12udm10947-p12udm10952) Units=km Length=0.014798300000000002 bus1=p12udm10947.1.2 bus2=p12udm10952.1.2 switch=n enabled=y phases=2 Linecode=1P_OH_AL_2/0_Rucina_2

New Line.l(r:p12udm10946-p12udm10947) Units=km Length=0.0128932 bus1=p12udm10946.1.2 bus2=p12udm10947.1.2 switch=n enabled=y phases=2 Linecode=1P_OH_AL_2/0_Rucina_2

New Line.l(r:p12udm10946-p12udt2670lv) Units=km Length=0.0129004 bus1=p12udt2670lv.1.2 bus2=p12udm10946.1.2 switch=n enabled=y phases=2 Linecode=1P_OH_AL_2/0_Rucina_2

New Line.l(r:p12udm10948-p12ulv9458) Units=km Length=0.0245961 bus1=p12udm10948.1.2 bus2=p12ulv9458.1.2 switch=n enabled=y phases=2 Linecode=1P_OH_AL_2/0_Rucina_2

New Line.l(r:p12udm10948-p12udt2670lv) Units=km Length=0.0605782 bus1=p12udt2670lv.1.2 bus2=p12udm10948.1.2 switch=n enabled=y phases=2 Linecode=1P_OH_AL_4/0_Zuzara_2

New Line.l(r:p12udt2671lv-p12ulv9368) Units=km Length=0.001 bus1=p12udt2671lv.1.2 bus2=p12ulv9368.1.2 switch=n enabled=y phases=2 Linecode=1P_OH_AL_4_Periwinkle_2

New Line.l(r:p12udt2679lv-p12ulv9605) Units=km Length=0.0157623 bus1=p12udt2679lv.1.2 bus2=p12ulv9605.1.2 switch=n enabled=y phases=2 Linecode=1P_OH_AL_2/0_Rucina_2

New Line.l(r:p12udm10990-p12ulv9454) Units=km Length=0.00693311 bus1=p12udm10990.1.2 bus2=p12ulv9454.1.2 switch=n enabled=y phases=2 Linecode=1P_OH_AL_2/0_Rucina_2

New Line.l(r:p12udm10989-p12ulv9431) Units=km Length=0.004333830000000001 bus1=p12udm10989.1.2 bus2=p12ulv9431.1.2 switch=n enabled=y phases=2 Linecode=1P_OH_AL_2/0_Rucina_2

New Line.l(r:p12udm10992-p12ulv9564) Units=km Length=0.00186432 bus1=p12udm10992.1.2 bus2=p12ulv9564.1.2 switch=n enabled=y phases=2 Linecode=1P_OH_AL_4_Periwinkle_2

New Line.l(r:p12udm10989-p12udm10992) Units=km Length=0.0198199 bus1=p12udm10989.1.2 bus2=p12udm10992.1.2 switch=n enabled=y phases=2 Linecode=1P_OH_AL_2/0_Rucina_2

New Line.l(r:p12udm10989-p12udm10990) Units=km Length=0.0198218 bus1=p12udm10990.1.2 bus2=p12udm10989.1.2 switch=n enabled=y phases=2 Linecode=1P_OH_AL_2/0_Rucina_2

New Line.l(r:p12udm10990-p12udt2679lv) Units=km Length=0.0198199 bus1=p12udt2679lv.1.2 bus2=p12udm10990.1.2 switch=n enabled=y phases=2 Linecode=1P_OH_AL_2/0_Rucina_2

New Line.l(r:p12udm10994-p12ulv9575) Units=km Length=0.00370786 bus1=p12udm10994.1.2 bus2=p12ulv9575.1.2 switch=n enabled=y phases=2 Linecode=1P_OH_AL_4_Periwinkle_2

New Line.l(r:p12udm10994-p12ulv9616) Units=km Length=0.00617573 bus1=p12udm10994.1.2 bus2=p12ulv9616.1.2 switch=n enabled=y phases=2 Linecode=1P_OH_AL_2/0_Rucina_2

New Line.l(r:p12udm10988-p12ulv9378) Units=km Length=0.00680018 bus1=p12udm10988.1.2 bus2=p12ulv9378.1.2 switch=n enabled=y phases=2 Linecode=1P_OH_AL_2/0_Rucina_2

New Line.l(r:p12udm10988-p12ulv9549) Units=km Length=0.00715353 bus1=p12udm10988.1.2 bus2=p12ulv9549.1.2 switch=n enabled=y phases=2 Linecode=1P_OH_AL_2/0_Rucina_2

New Line.l(r:p12udm10988-p12ulv9574) Units=km Length=0.00816682 bus1=p12udm10988.1.2 bus2=p12ulv9574.1.2 switch=n enabled=y phases=2 Linecode=1P_OH_AL_2/0_Rucina_2

New Line.l(r:p12udm10988-p12udm10994) Units=km Length=0.0198316 bus1=p12udm10994.1.2 bus2=p12udm10988.1.2 switch=n enabled=y phases=2 Linecode=1P_OH_AL_2/0_Rucina_2

New Line.l(r:p12udm10994-p12udt2679lv) Units=km Length=0.0198199 bus1=p12udt2679lv.1.2 bus2=p12udm10994.1.2 switch=n enabled=y phases=2 Linecode=1P_OH_AL_2/0_Rucina_2

New Line.l(r:p12udm11009-p12ulv9383) Units=km Length=0.0359655 bus1=p12udm11009.1.2 bus2=p12ulv9383.1.2 switch=n enabled=y phases=2 Linecode=1P_OH_AL_4/0_Zuzara_2

New Line.l(r:p12udm11009-p12ulv9618) Units=km Length=0.0208927 bus1=p12udm11009.1.2 bus2=p12ulv9618.1.2 switch=n enabled=y phases=2 Linecode=1P_OH_AL_2/0_Rucina_2

New Line.l(r:p12udm11009-p12udt2683lv) Units=km Length=0.013909800000000002 bus1=p12udt2683lv.1.2 bus2=p12udm11009.1.2 switch=n enabled=y phases=2 Linecode=1P_OH_AL_2/0_Rucina_2

New Line.l(r:p12udm11010-p12ulv9507) Units=km Length=0.0297763 bus1=p12udm11010.1.2 bus2=p12ulv9507.1.2 switch=n enabled=y phases=2 Linecode=1P_OH_AL_4/0_Zuzara_2

New Line.l(r:p12udm11010-p12udt2683lv) Units=km Length=0.0290915 bus1=p12udt2683lv.1.2 bus2=p12udm11010.1.2 switch=n enabled=y phases=2 Linecode=1P_OH_AL_4/0_Zuzara_2

New Line.l(r:p12udt2688lv-p12ulv9390) Units=km Length=0.0672503 bus1=p12udt2688lv.1.2 bus2=p12ulv9390.1.2 switch=n enabled=y phases=2 Linecode=1P_OH_AL_4/0_Zuzara_2

New Line.l(r:p12udt2688lv-p12ulv9467) Units=km Length=0.0410114 bus1=p12udt2688lv.1.2 bus2=p12ulv9467.1.2 switch=n enabled=y phases=2 Linecode=1P_OH_AL_4/0_Zuzara_2

New Line.l(r:p12udt2688lv-p12ulv9491) Units=km Length=0.0233693 bus1=p12udt2688lv.1.2 bus2=p12ulv9491.1.2 switch=n enabled=y phases=2 Linecode=1P_OH_AL_2/0_Rucina_2

New Line.l(r:p12udt2688lv-p12ulv9499) Units=km Length=0.0400608 bus1=p12udt2688lv.1.2 bus2=p12ulv9499.1.2 switch=n enabled=y phases=2 Linecode=1P_OH_AL_4/0_Zuzara_2

New Line.l(r:p12udt2688lv-p12ulv9500) Units=km Length=0.00821176 bus1=p12udt2688lv.1.2 bus2=p12ulv9500.1.2 switch=n enabled=y phases=2 Linecode=1P_OH_AL_2/0_Rucina_2

New Line.l(r:p12udt2688lv-p12ulv9595) Units=km Length=0.0369309 bus1=p12udt2688lv.1.2 bus2=p12ulv9595.1.2 switch=n enabled=y phases=2 Linecode=1P_OH_AL_4/0_Zuzara_2

New Line.l(r:p12udm11036-p12ulv9562) Units=km Length=0.027703200000000004 bus1=p12udm11036.1.2 bus2=p12ulv9562.1.2 switch=n enabled=y phases=2 Linecode=1P_OH_AL_4/0_Zuzara_2

New Line.l(r:p12udm11036-p12udt2688lv) Units=km Length=0.0584493 bus1=p12udt2688lv.1.2 bus2=p12udm11036.1.2 switch=n enabled=y phases=2 Linecode=1P_OH_AL_4/0_Zuzara_2

New Line.l(r:p12udt2691lv-p12ulv9398) Units=km Length=0.0159392 bus1=p12udt2691lv.1.2 bus2=p12ulv9398.1.2 switch=n enabled=y phases=2 Linecode=1P_OH_AL_2/0_Rucina_2

New Line.l(r:p12udm11043-p12ulv9396) Units=km Length=0.0214396 bus1=p12udm11043.1.2 bus2=p12ulv9396.1.2 switch=n enabled=y phases=2 Linecode=1P_OH_AL_2/0_Rucina_2

New Line.l(r:p12udm11043-p12ulv9508) Units=km Length=0.0078847 bus1=p12udm11043.1.2 bus2=p12ulv9508.1.2 switch=n enabled=y phases=2 Linecode=1P_OH_AL_2/0_Rucina_2

New Line.l(r:p12udm11043-p12udt2691lv) Units=km Length=0.0110802 bus1=p12udt2691lv.1.2 bus2=p12udm11043.1.2 switch=n enabled=y phases=2 Linecode=1P_OH_AL_2/0_Rucina_2

New Line.l(r:p12udm11045-p12ulv9502) Units=km Length=0.00432487 bus1=p12udm11045.1.2 bus2=p12ulv9502.1.2 switch=n enabled=y phases=2 Linecode=1P_OH_AL_2/0_Rucina_2

New Line.l(r:p12udm11045-p12ulv9620) Units=km Length=0.0356454 bus1=p12udm11045.1.2 bus2=p12ulv9620.1.2 switch=n enabled=y phases=2 Linecode=1P_OH_AL_4/0_Zuzara_2

New Line.l(r:p12udm11045-p12udt2691lv) Units=km Length=0.026371300000000004 bus1=p12udt2691lv.1.2 bus2=p12udm11045.1.2 switch=n enabled=y phases=2 Linecode=1P_OH_AL_2/0_Rucina_2

New Line.l(r:p12udt2715lv-p12ulv9470) Units=km Length=0.024570800000000004 bus1=p12udt2715lv.1.2 bus2=p12ulv9470.1.2 switch=n enabled=y phases=2 Linecode=1P_OH_AL_2/0_Rucina_2

New Line.l(r:p12udt2715lv-p12ulv9573) Units=km Length=0.00772169 bus1=p12udt2715lv.1.2 bus2=p12ulv9573.1.2 switch=n enabled=y phases=2 Linecode=1P_OH_AL_2/0_Rucina_2

New Line.l(r:p12udm11150-p12ulv9546) Units=km Length=0.00631184 bus1=p12udm11150.1.2 bus2=p12ulv9546.1.2 switch=n enabled=y phases=2 Linecode=1P_OH_AL_2/0_Rucina_2

New Line.l(r:p12udm11150-p12udt2715lv) Units=km Length=0.015275200000000001 bus1=p12udt2715lv.1.2 bus2=p12udm11150.1.2 switch=n enabled=y phases=2 Linecode=1P_OH_AL_2/0_Rucina_2

New Line.l(r:p12udt2724lv-p12ulv9498) Units=km Length=0.109686 bus1=p12udt2724lv.1.2 bus2=p12ulv9498.1.2 switch=n enabled=y phases=2 Linecode=1P_OH_AL_4/0_Zuzara_2

New Line.l(r:p12udt2724lv-p12ulv9539) Units=km Length=0.0877437 bus1=p12udt2724lv.1.2 bus2=p12ulv9539.1.2 switch=n enabled=y phases=2 Linecode=1P_OH_AL_4/0_Zuzara_2

New Line.l(r:p12udt2724lv-p12ulv9568) Units=km Length=0.0736357 bus1=p12udt2724lv.1.2 bus2=p12ulv9568.1.2 switch=n enabled=y phases=2 Linecode=1P_OH_AL_4/0_Zuzara_2

New Line.l(r:p12udt2724lv-p12ulv9589) Units=km Length=0.0870281 bus1=p12udt2724lv.1.2 bus2=p12ulv9589.1.2 switch=n enabled=y phases=2 Linecode=1P_OH_AL_4/0_Zuzara_2

New Line.l(r:p12udt2724lv-p12ulv9599) Units=km Length=0.0480358 bus1=p12udt2724lv.1.2 bus2=p12ulv9599.1.2 switch=n enabled=y phases=2 Linecode=1P_OH_AL_4/0_Zuzara_2

New Line.l(r:p12udt2730lv-p12ulv9529) Units=km Length=0.0948069 bus1=p12udt2730lv.1.2 bus2=p12ulv9529.1.2 switch=n enabled=y phases=2 Linecode=1P_OH_AL_4/0_Zuzara_2

New Line.l(r:p12udt2950lv-p12ulv10683) Units=km Length=0.0165355 bus1=p12udt2950lv.1.2 bus2=p12ulv10683.1.2 switch=n enabled=y phases=2 Linecode=1P_UG_AL_1/0_Brenau_2

New Line.l(r:p12udt2950lv-p12ulv10685) Units=km Length=0.0242214 bus1=p12udt2950lv.1.2 bus2=p12ulv10685.1.2 switch=n enabled=y phases=2 Linecode=1P_UG_AL_1/0_Brenau_2

New Line.l(r:p12udt2950lv-p12ulv10690) Units=km Length=0.00784137 bus1=p12udt2950lv.1.2 bus2=p12ulv10690.1.2 switch=n enabled=y phases=2 Linecode=1P_UG_AL_1/0_Brenau_2

New Line.l(r:p12udt2951lv-p12ulv10684) Units=km Length=0.0328102 bus1=p12udt2951lv.1.2 bus2=p12ulv10684.1.2 switch=n enabled=y phases=2 Linecode=1P_OH_AL_4/0_Zuzara_2

New Line.l(r:p12udt2951lv-p12ulv10686) Units=km Length=0.00733533 bus1=p12udt2951lv.1.2 bus2=p12ulv10686.1.2 switch=n enabled=y phases=2 Linecode=1P_OH_AL_2/0_Rucina_2

New Line.l(r:p12udt2951lv-p12ulv20999) Units=km Length=0.0314088 bus1=p12udt2951lv.1.2 bus2=p12ulv20999.1.2 switch=n enabled=y phases=2 Linecode=1P_OH_AL_4/0_Zuzara_2

New Line.l(r:p12udt2952lv-p12ulv10687) Units=km Length=0.0141771 bus1=p12udt2952lv.1.2 bus2=p12ulv10687.1.2 switch=n enabled=y phases=2 Linecode=1P_OH_AL_2/0_Rucina_2

New Line.l(r:p12udt2952lv-p12ulv10691) Units=km Length=0.0141771 bus1=p12udt2952lv.1.2 bus2=p12ulv10691.1.2 switch=n enabled=y phases=2 Linecode=1P_OH_AL_2/0_Rucina_2

New Line.l(r:p12udt2953lv-p12ulv10688) Units=km Length=0.001 bus1=p12udt2953lv.1.2 bus2=p12ulv10688.1.2 switch=n enabled=y phases=2 Linecode=1P_OH_AL_4_Periwinkle_2

New Line.l(r:p12udt2954lv-p12ulv10689) Units=km Length=0.0722816 bus1=p12udt2954lv.1.2 bus2=p12ulv10689.1.2 switch=n enabled=y phases=2 Linecode=1P_UG_AL_4/0_Sweetbriar_2

New Line.l(r:p12udt2955lv-p12ulv10692) Units=km Length=0.0395911 bus1=p12udt2955lv.1.2 bus2=p12ulv10692.1.2 switch=n enabled=y phases=2 Linecode=1P_OH_AL_4/0_Zuzara_2

New Line.l(r:p12udt2955lv-p12ulv22943) Units=km Length=0.0115851 bus1=p12udt2955lv.1.2 bus2=p12ulv22943.1.2 switch=n enabled=y phases=2 Linecode=1P_OH_AL_2/0_Rucina_2

New Line.l(r:p12udt2955lv-p12ulv23132) Units=km Length=0.013755 bus1=p12udt2955lv.1.2 bus2=p12ulv23132.1.2 switch=n enabled=y phases=2 Linecode=1P_OH_AL_2/0_Rucina_2

New Line.l(r:p12udt2955lv-p12ulv23173) Units=km Length=0.0396956 bus1=p12udt2955lv.1.2 bus2=p12ulv23173.1.2 switch=n enabled=y phases=2 Linecode=1P_OH_AL_4/0_Zuzara_2

New Line.l(r:p12udt2955lv-p12ulv23205) Units=km Length=0.017192 bus1=p12udt2955lv.1.2 bus2=p12ulv23205.1.2 switch=n enabled=y phases=2 Linecode=1P_OH_AL_2/0_Rucina_2

New Line.l(r:p12udt3325lv-p12ulv12581) Units=km Length=0.0815577 bus1=p12udt3325lv.1.2 bus2=p12ulv12581.1.2 switch=n enabled=y phases=2 Linecode=1P_OH_AL_4/0_Zuzara_2

New Line.l(r:p12udt3325lv-p12ulv12604) Units=km Length=0.11304000000000002 bus1=p12udt3325lv.1.2 bus2=p12ulv12604.1.2 switch=n enabled=y phases=2 Linecode=1P_OH_AL_4/0_Zuzara_2

New Line.l(r:p12udt3328lv-p12ulv12586) Units=km Length=0.164165 bus1=p12udt3328lv.1.2 bus2=p12ulv12586.1.2 switch=n enabled=y phases=2 Linecode=1P_OH_AL_4/0_Zuzara_2

New Line.l(r:p12udt3328lv-p12ulv12603) Units=km Length=0.0260113 bus1=p12udt3328lv.1.2 bus2=p12ulv12603.1.2 switch=n enabled=y phases=2 Linecode=1P_OH_AL_2/0_Rucina_2

New Line.l(r:p12udt3333lv-p12ulv12598) Units=km Length=0.0135886 bus1=p12udt3333lv.1.2 bus2=p12ulv12598.1.2 switch=n enabled=y phases=2 Linecode=1P_UG_AL_1/0_Brenau_2

New Line.l(r:p12udt3387lv-p12ulv12771) Units=km Length=0.0661547 bus1=p12udt3387lv.1.2 bus2=p12ulv12771.1.2 switch=n enabled=y phases=2 Linecode=1P_OH_AL_4/0_Zuzara_2

New Line.l(r:p12udt3387lv-p12ulv12837) Units=km Length=0.0661547 bus1=p12udt3387lv.1.2 bus2=p12ulv12837.1.2 switch=n enabled=y phases=2 Linecode=1P_OH_AL_4/0_Zuzara_2

New Line.l(r:p12udt3390lv-p12ulv12777) Units=km Length=0.00865045 bus1=p12udt3390lv.1.2 bus2=p12ulv12777.1.2 switch=n enabled=y phases=2 Linecode=1P_OH_AL_2/0_Rucina_2

New Line.l(r:p12udt3390lv-p12ulv12790) Units=km Length=0.0378479 bus1=p12udt3390lv.1.2 bus2=p12ulv12790.1.2 switch=n enabled=y phases=2 Linecode=1P_OH_AL_4/0_Zuzara_2

New Line.l(r:p12udt3390lv-p12ulv12791) Units=km Length=0.0307327 bus1=p12udt3390lv.1.2 bus2=p12ulv12791.1.2 switch=n enabled=y phases=2 Linecode=1P_OH_AL_4/0_Zuzara_2

New Line.l(r:p12udt3398lv-p12ulv12796) Units=km Length=0.001 bus1=p12udt3398lv.1.2 bus2=p12ulv12796.1.2 switch=n enabled=y phases=2 Linecode=1P_OH_AL_4_Periwinkle_2

New Line.l(r:p12udt3411lv-p12ulv12830) Units=km Length=0.001 bus1=p12udt3411lv.1.2 bus2=p12ulv12830.1.2 switch=n enabled=y phases=2 Linecode=1P_OH_AL_4_Periwinkle_2

New Line.l(r:p12udt3693lv-p12ulv13615) Units=km Length=0.0148975 bus1=p12udt3693lv.1.2 bus2=p12ulv13615.1.2 switch=n enabled=y phases=2 Linecode=1P_OH_AL_2/0_Rucina_2

New Line.l(r:p12udm15373-p12ulv13619) Units=km Length=0.0213156 bus1=p12udm15373.1.2 bus2=p12ulv13619.1.2 switch=n enabled=y phases=2 Linecode=1P_UG_AL_1/0_Brenau_2

New Line.l(r:p12udm15375-p12ulv13681) Units=km Length=0.0540851 bus1=p12udm15375.1.2 bus2=p12ulv13681.1.2 switch=n enabled=y phases=2 Linecode=1P_UG_AL_1/0_Brenau_2

New Line.l(r:p12udm15373-p12udm15375) Units=km Length=0.0187159 bus1=p12udm15373.1.2 bus2=p12udm15375.1.2 switch=n enabled=y phases=2 Linecode=1P_UG_AL_1/0_Brenau_2

New Line.l(r:p12udm15373-p12udt3695lv) Units=km Length=0.0093509 bus1=p12udt3695lv.1.2 bus2=p12udm15373.1.2 switch=n enabled=y phases=2 Linecode=1P_UG_AL_1/0_Brenau_2

New Line.l(r:p12udm15374-p12ulv13642) Units=km Length=0.0449053 bus1=p12udm15374.1.2 bus2=p12ulv13642.1.2 switch=n enabled=y phases=2 Linecode=1P_UG_AL_1/0_Brenau_2

New Line.l(r:p12udm15374-p12udt3695lv) Units=km Length=0.028066800000000003 bus1=p12udt3695lv.1.2 bus2=p12udm15374.1.2 switch=n enabled=y phases=2 Linecode=1P_UG_AL_1/0_Brenau_2

New Line.l(r:p12udt3701lv-p12ulv13638) Units=km Length=0.001 bus1=p12udt3701lv.1.2 bus2=p12ulv13638.1.2 switch=n enabled=y phases=2 Linecode=1P_OH_AL_4_Periwinkle_2

New Line.l(r:p12udt3711lv-p12ulv13673) Units=km Length=0.0554413 bus1=p12udt3711lv.1.2 bus2=p12ulv13673.1.2 switch=n enabled=y phases=2 Linecode=1P_OH_AL_4/0_Zuzara_2

New Line.l(r:p12udt3711lv-p12ulv13687) Units=km Length=0.0850709 bus1=p12udt3711lv.1.2 bus2=p12ulv13687.1.2 switch=n enabled=y phases=2 Linecode=1P_OH_AL_4/0_Zuzara_2

New Line.l(r:p12udt3713lv-p12ulv13676) Units=km Length=0.001 bus1=p12udt3713lv.1.2 bus2=p12ulv13676.1.2 switch=n enabled=y phases=2 Linecode=1P_OH_AL_4_Periwinkle_2

New Line.l(r:p12udt4002lv-p12ulv14533) Units=km Length=0.001 bus1=p12udt4002lv.1.2 bus2=p12ulv14533.1.2 switch=n enabled=y phases=2 Linecode=1P_UG_AL_1/0_Brenau_2

New Line.l(r:p12udm16387-p12ulv14534) Units=km Length=0.10244300000000002 bus1=p12udm16387.1.2 bus2=p12ulv14534.1.2 switch=n enabled=y phases=2 Linecode=1P_UG_AL_1/0_Brenau_2

New Line.l(r:p12udm16387-p12udt4003lv) Units=km Length=0.009901640000000001 bus1=p12udt4003lv.1.2 bus2=p12udm16387.1.2 switch=n enabled=y phases=2 Linecode=1P_UG_AL_1/0_Brenau_2

New Line.l(r:p12udm16388-p12ulv14539) Units=km Length=0.07957030000000001 bus1=p12udm16388.1.2 bus2=p12ulv14539.1.2 switch=n enabled=y phases=2 Linecode=1P_UG_AL_1/0_Brenau_2

New Line.l(r:p12udm16388-p12udt4003lv) Units=km Length=0.00988776 bus1=p12udt4003lv.1.2 bus2=p12udm16388.1.2 switch=n enabled=y phases=2 Linecode=1P_UG_AL_1/0_Brenau_2

New Line.l(r:p12udm16390-p12ulv14546) Units=km Length=0.0050741 bus1=p12udm16390.1.2 bus2=p12ulv14546.1.2 switch=n enabled=y phases=2 Linecode=1P_UG_AL_1/0_Brenau_2

New Line.l(r:p12udm16390-p12ulv14547) Units=km Length=0.0363455 bus1=p12udm16390.1.2 bus2=p12ulv14547.1.2 switch=n enabled=y phases=2 Linecode=1P_UG_AL_1/0_Brenau_2

New Line.l(r:p12udm16393-p12ulv14549) Units=km Length=0.0207124 bus1=p12udm16393.1.2 bus2=p12ulv14549.1.2 switch=n enabled=y phases=2 Linecode=1P_UG_AL_1/0_Brenau_2

New Line.l(r:p12udm16390-p12udm16393) Units=km Length=0.00810307 bus1=p12udm16390.1.2 bus2=p12udm16393.1.2 switch=n enabled=y phases=2 Linecode=1P_UG_AL_1/0_Brenau_2
