New Load.load_p12ulv165_1 conn=wye bus1=p12ulv165.1 kV=0.12 Vminpu=0.8 Vmaxpu=1.2 model=1 kW=2.9076987689555547 kvar=0.4990087025098919 Phases=1

New Load.load_p12ulv165_2 conn=wye bus1=p12ulv165.2 kV=0.12 Vminpu=0.8 Vmaxpu=1.2 model=1 kW=2.9076987689555547 kvar=0.4990087025098919 Phases=1

New Load.load_p12ulv176_1 conn=wye bus1=p12ulv176.1 kV=0.12 Vminpu=0.8 Vmaxpu=1.2 model=1 kW=2.4473849682194437 kvar=0.3216194123870954 Phases=1

New Load.load_p12ulv176_2 conn=wye bus1=p12ulv176.2 kV=0.12 Vminpu=0.8 Vmaxpu=1.2 model=1 kW=2.4473849682194437 kvar=0.3216194123870954 Phases=1

New Load.load_p12ulv197_1 conn=wye bus1=p12ulv197.1 kV=0.12 Vminpu=0.8 Vmaxpu=1.2 model=1 kW=6.1140699739098325 kvar=0.0691290550182753 Phases=1

New Load.load_p12ulv197_2 conn=wye bus1=p12ulv197.2 kV=0.12 Vminpu=0.8 Vmaxpu=1.2 model=1 kW=6.1140699739098325 kvar=0.0691290550182753 Phases=1

New Load.load_p12ulv200_1 conn=wye bus1=p12ulv200.1 kV=0.12 Vminpu=0.8 Vmaxpu=1.2 model=1 kW=2.7935386970404408 kvar=0.018922139033990728 Phases=1

New Load.load_p12ulv200_2 conn=wye bus1=p12ulv200.2 kV=0.12 Vminpu=0.8 Vmaxpu=1.2 model=1 kW=2.7935386970404408 kvar=0.018922139033990728 Phases=1

New Load.load_p12ulv206_1 conn=wye bus1=p12ulv206.1 kV=0.12 Vminpu=0.8 Vmaxpu=1.2 model=1 kW=0.4201586663199254 kvar=0.14715274062115527 Phases=1

New Load.load_p12ulv206_2 conn=wye bus1=p12ulv206.2 kV=0.12 Vminpu=0.8 Vmaxpu=1.2 model=1 kW=0.4201586663199254 kvar=0.14715274062115527 Phases=1

New Load.load_p12ulv210_1 conn=wye bus1=p12ulv210.1 kV=0.12 Vminpu=0.8 Vmaxpu=1.2 model=1 kW=0.895854429151281 kvar=0.6750370195342454 Phases=1

New Load.load_p12ulv210_2 conn=wye bus1=p12ulv210.2 kV=0.12 Vminpu=0.8 Vmaxpu=1.2 model=1 kW=0.895854429151281 kvar=0.6750370195342454 Phases=1

New Load.load_p12ulv214_1 conn=wye bus1=p12ulv214.1 kV=0.12 Vminpu=0.8 Vmaxpu=1.2 model=1 kW=2.725954562298933 kvar=0.5866148963219024 Phases=1

New Load.load_p12ulv214_2 conn=wye bus1=p12ulv214.2 kV=0.12 Vminpu=0.8 Vmaxpu=1.2 model=1 kW=2.725954562298933 kvar=0.5866148963219024 Phases=1

New Load.load_p12ulv261_1 conn=wye bus1=p12ulv261.1 kV=0.12 Vminpu=0.8 Vmaxpu=1.2 model=1 kW=5.611133182200907 kvar=0.07668264048246332 Phases=1

New Load.load_p12ulv261_2 conn=wye bus1=p12ulv261.2 kV=0.12 Vminpu=0.8 Vmaxpu=1.2 model=1 kW=5.611133182200907 kvar=0.07668264048246332 Phases=1

New Load.load_p12ulv265_1 conn=wye bus1=p12ulv265.1 kV=0.12 Vminpu=0.8 Vmaxpu=1.2 model=1 kW=2.445994317964332 kvar=0.8597073331859654 Phases=1

New Load.load_p12ulv265_2 conn=wye bus1=p12ulv265.2 kV=0.12 Vminpu=0.8 Vmaxpu=1.2 model=1 kW=2.445994317964332 kvar=0.8597073331859654 Phases=1

New Load.load_p12ulv268_1 conn=wye bus1=p12ulv268.1 kV=0.12 Vminpu=0.8 Vmaxpu=1.2 model=1 kW=0.7073298240395912 kvar=0.27247283022117846 Phases=1

New Load.load_p12ulv268_2 conn=wye bus1=p12ulv268.2 kV=0.12 Vminpu=0.8 Vmaxpu=1.2 model=1 kW=0.7073298240395912 kvar=0.27247283022117846 Phases=1

New Load.load_p12ulv288_1 conn=wye bus1=p12ulv288.1 kV=0.12 Vminpu=0.8 Vmaxpu=1.2 model=1 kW=1.554325896527151 kvar=0.5828877012431191 Phases=1

New Load.load_p12ulv288_2 conn=wye bus1=p12ulv288.2 kV=0.12 Vminpu=0.8 Vmaxpu=1.2 model=1 kW=1.554325896527151 kvar=0.5828877012431191 Phases=1

New Load.load_p12ulv293_1 conn=wye bus1=p12ulv293.1 kV=0.12 Vminpu=0.8 Vmaxpu=1.2 model=1 kW=1.1522187211102024 kvar=0.1254646123654986 Phases=1

New Load.load_p12ulv293_2 conn=wye bus1=p12ulv293.2 kV=0.12 Vminpu=0.8 Vmaxpu=1.2 model=1 kW=1.1522187211102024 kvar=0.1254646123654986 Phases=1

New Load.load_p12ulv295_1 conn=wye bus1=p12ulv295.1 kV=0.12 Vminpu=0.8 Vmaxpu=1.2 model=1 kW=6.1140699739098325 kvar=0.0691290550182753 Phases=1

New Load.load_p12ulv295_2 conn=wye bus1=p12ulv295.2 kV=0.12 Vminpu=0.8 Vmaxpu=1.2 model=1 kW=6.1140699739098325 kvar=0.0691290550182753 Phases=1

New Load.load_p12ulv297_1 conn=wye bus1=p12ulv297.1 kV=0.12 Vminpu=0.8 Vmaxpu=1.2 model=1 kW=3.163532585010919 kvar=0.2110868081047307 Phases=1

New Load.load_p12ulv297_2 conn=wye bus1=p12ulv297.2 kV=0.12 Vminpu=0.8 Vmaxpu=1.2 model=1 kW=3.163532585010919 kvar=0.2110868081047307 Phases=1

New Load.load_p12ulv303_1 conn=wye bus1=p12ulv303.1 kV=0.12 Vminpu=0.8 Vmaxpu=1.2 model=1 kW=2.515651838005084 kvar=0.502504824260357 Phases=1

New Load.load_p12ulv303_2 conn=wye bus1=p12ulv303.2 kV=0.12 Vminpu=0.8 Vmaxpu=1.2 model=1 kW=2.515651838005084 kvar=0.502504824260357 Phases=1

New Load.load_p12ulv309_1 conn=wye bus1=p12ulv309.1 kV=0.12 Vminpu=0.8 Vmaxpu=1.2 model=1 kW=1.0862448810535612 kvar=0.4014767720080155 Phases=1

New Load.load_p12ulv309_2 conn=wye bus1=p12ulv309.2 kV=0.12 Vminpu=0.8 Vmaxpu=1.2 model=1 kW=1.0862448810535612 kvar=0.4014767720080155 Phases=1

New Load.load_p12ulv324_1 conn=wye bus1=p12ulv324.1 kV=0.12 Vminpu=0.8 Vmaxpu=1.2 model=1 kW=1.9343315226182738 kvar=0.49130394288638346 Phases=1

New Load.load_p12ulv324_2 conn=wye bus1=p12ulv324.2 kV=0.12 Vminpu=0.8 Vmaxpu=1.2 model=1 kW=1.9343315226182738 kvar=0.49130394288638346 Phases=1

New Load.load_p12ulv338_1 conn=wye bus1=p12ulv338.1 kV=0.12 Vminpu=0.8 Vmaxpu=1.2 model=1 kW=1.6770161139508808 kvar=0.8672119324835039 Phases=1

New Load.load_p12ulv338_2 conn=wye bus1=p12ulv338.2 kV=0.12 Vminpu=0.8 Vmaxpu=1.2 model=1 kW=1.6770161139508808 kvar=0.8672119324835039 Phases=1

New Load.load_p12ulv897_1 conn=wye bus1=p12ulv897.1 kV=0.12 Vminpu=0.8 Vmaxpu=1.2 model=1 kW=6.31274076563101 kvar=1.4034460953533878 Phases=1

New Load.load_p12ulv897_2 conn=wye bus1=p12ulv897.2 kV=0.12 Vminpu=0.8 Vmaxpu=1.2 model=1 kW=6.31274076563101 kvar=1.4034460953533878 Phases=1

New Load.load_p12ulv2732_1 conn=wye bus1=p12ulv2732.1 kV=0.12 Vminpu=0.8 Vmaxpu=1.2 model=1 kW=4.081491473931403 kvar=0.38790809170653573 Phases=1

New Load.load_p12ulv2732_2 conn=wye bus1=p12ulv2732.2 kV=0.12 Vminpu=0.8 Vmaxpu=1.2 model=1 kW=4.081491473931403 kvar=0.38790809170653573 Phases=1

New Load.load_p12ulv4435 conn=wye bus1=p12ulv4435.1.2.3 kV=0.48 Vminpu=0.8 Vmaxpu=1.2 model=1 kW=16.551651569037503 kvar=3.9046460920967303 Phases=3

New Load.load_p12ulv4436_1 conn=wye bus1=p12ulv4436.1 kV=0.12 Vminpu=0.8 Vmaxpu=1.2 model=1 kW=3.562535571473785 kvar=0.37216890019621607 Phases=1

New Load.load_p12ulv4436_2 conn=wye bus1=p12ulv4436.2 kV=0.12 Vminpu=0.8 Vmaxpu=1.2 model=1 kW=3.562535571473785 kvar=0.37216890019621607 Phases=1

New Load.load_p12ulv4437_1 conn=wye bus1=p12ulv4437.1 kV=0.12 Vminpu=0.8 Vmaxpu=1.2 model=1 kW=3.025577912376512 kvar=0.6479907691217454 Phases=1

New Load.load_p12ulv4437_2 conn=wye bus1=p12ulv4437.2 kV=0.12 Vminpu=0.8 Vmaxpu=1.2 model=1 kW=3.025577912376512 kvar=0.6479907691217454 Phases=1

New Load.load_p12ulv4438_1 conn=wye bus1=p12ulv4438.1 kV=0.12 Vminpu=0.8 Vmaxpu=1.2 model=1 kW=3.025577912376512 kvar=0.6479907691217454 Phases=1

New Load.load_p12ulv4438_2 conn=wye bus1=p12ulv4438.2 kV=0.12 Vminpu=0.8 Vmaxpu=1.2 model=1 kW=3.025577912376512 kvar=0.6479907691217454 Phases=1

New Load.load_p12ulv4439_1 conn=wye bus1=p12ulv4439.1 kV=0.12 Vminpu=0.8 Vmaxpu=1.2 model=1 kW=2.290544136396002 kvar=0.6122151063053857 Phases=1

New Load.load_p12ulv4439_2 conn=wye bus1=p12ulv4439.2 kV=0.12 Vminpu=0.8 Vmaxpu=1.2 model=1 kW=2.290544136396002 kvar=0.6122151063053857 Phases=1

New Load.load_p12ulv4440_1 conn=wye bus1=p12ulv4440.1 kV=0.12 Vminpu=0.8 Vmaxpu=1.2 model=1 kW=2.468202499819808 kvar=0.6441055098757433 Phases=1

New Load.load_p12ulv4440_2 conn=wye bus1=p12ulv4440.2 kV=0.12 Vminpu=0.8 Vmaxpu=1.2 model=1 kW=2.468202499819808 kvar=0.6441055098757433 Phases=1

New Load.load_p12ulv4441_1 conn=wye bus1=p12ulv4441.1 kV=0.12 Vminpu=0.8 Vmaxpu=1.2 model=1 kW=9.951926910354675 kvar=0.6827212252142756 Phases=1

New Load.load_p12ulv4441_2 conn=wye bus1=p12ulv4441.2 kV=0.12 Vminpu=0.8 Vmaxpu=1.2 model=1 kW=9.951926910354675 kvar=0.6827212252142756 Phases=1

New Load.load_p12ulv4442_1 conn=wye bus1=p12ulv4442.1 kV=0.12 Vminpu=0.8 Vmaxpu=1.2 model=1 kW=3.855085737469215 kvar=0.29903014525431715 Phases=1

New Load.load_p12ulv4442_2 conn=wye bus1=p12ulv4442.2 kV=0.12 Vminpu=0.8 Vmaxpu=1.2 model=1 kW=3.855085737469215 kvar=0.29903014525431715 Phases=1

New Load.load_p12ulv4443 conn=wye bus1=p12ulv4443.1.2.3 kV=0.48 Vminpu=0.8 Vmaxpu=1.2 model=1 kW=24.738167050251814 kvar=7.470509488021142 Phases=3

New Load.load_p12ulv4444_1 conn=wye bus1=p12ulv4444.1 kV=0.12 Vminpu=0.8 Vmaxpu=1.2 model=1 kW=3.025577912376512 kvar=0.6479907691217454 Phases=1

New Load.load_p12ulv4444_2 conn=wye bus1=p12ulv4444.2 kV=0.12 Vminpu=0.8 Vmaxpu=1.2 model=1 kW=3.025577912376512 kvar=0.6479907691217454 Phases=1

New Load.load_p12ulv4445_1 conn=wye bus1=p12ulv4445.1 kV=0.12 Vminpu=0.8 Vmaxpu=1.2 model=1 kW=4.232057012168481 kvar=0.2513317849586886 Phases=1

New Load.load_p12ulv4445_2 conn=wye bus1=p12ulv4445.2 kV=0.12 Vminpu=0.8 Vmaxpu=1.2 model=1 kW=4.232057012168481 kvar=0.2513317849586886 Phases=1

New Load.load_p12ulv4446_1 conn=wye bus1=p12ulv4446.1 kV=0.12 Vminpu=0.8 Vmaxpu=1.2 model=1 kW=2.5479756413968033 kvar=0.727629962775584 Phases=1

New Load.load_p12ulv4446_2 conn=wye bus1=p12ulv4446.2 kV=0.12 Vminpu=0.8 Vmaxpu=1.2 model=1 kW=2.5479756413968033 kvar=0.727629962775584 Phases=1

New Load.load_p12ulv4447_1 conn=wye bus1=p12ulv4447.1 kV=0.12 Vminpu=0.8 Vmaxpu=1.2 model=1 kW=6.324650165635099 kvar=1.3145830403751857 Phases=1

New Load.load_p12ulv4447_2 conn=wye bus1=p12ulv4447.2 kV=0.12 Vminpu=0.8 Vmaxpu=1.2 model=1 kW=6.324650165635099 kvar=1.3145830403751857 Phases=1

New Load.load_p12ulv4448_1 conn=wye bus1=p12ulv4448.1 kV=0.12 Vminpu=0.8 Vmaxpu=1.2 model=1 kW=2.5379071176927064 kvar=0.7168723502737137 Phases=1

New Load.load_p12ulv4448_2 conn=wye bus1=p12ulv4448.2 kV=0.12 Vminpu=0.8 Vmaxpu=1.2 model=1 kW=2.5379071176927064 kvar=0.7168723502737137 Phases=1

New Load.load_p12ulv4449_1 conn=wye bus1=p12ulv4449.1 kV=0.12 Vminpu=0.8 Vmaxpu=1.2 model=1 kW=6.244781755577862 kvar=0.0674092412882031 Phases=1

New Load.load_p12ulv4449_2 conn=wye bus1=p12ulv4449.2 kV=0.12 Vminpu=0.8 Vmaxpu=1.2 model=1 kW=6.244781755577862 kvar=0.0674092412882031 Phases=1

New Load.load_p12ulv4450 conn=wye bus1=p12ulv4450.1.2.3 kV=0.48 Vminpu=0.8 Vmaxpu=1.2 model=1 kW=34.97713164503339 kvar=7.900724793060301 Phases=3

New Load.load_p12ulv4452_1 conn=wye bus1=p12ulv4452.1 kV=0.12 Vminpu=0.8 Vmaxpu=1.2 model=1 kW=2.4146763306383106 kvar=0.6793582693447386 Phases=1

New Load.load_p12ulv4452_2 conn=wye bus1=p12ulv4452.2 kV=0.12 Vminpu=0.8 Vmaxpu=1.2 model=1 kW=2.4146763306383106 kvar=0.6793582693447386 Phases=1

New Load.load_p12ulv4453_1 conn=wye bus1=p12ulv4453.1 kV=0.12 Vminpu=0.8 Vmaxpu=1.2 model=1 kW=3.498014754859445 kvar=0.018922139033990728 Phases=1

New Load.load_p12ulv4453_2 conn=wye bus1=p12ulv4453.2 kV=0.12 Vminpu=0.8 Vmaxpu=1.2 model=1 kW=3.498014754859445 kvar=0.018922139033990728 Phases=1

New Load.load_p12ulv4454_1 conn=wye bus1=p12ulv4454.1 kV=0.12 Vminpu=0.8 Vmaxpu=1.2 model=1 kW=2.940151571607843 kvar=0.7360323556900852 Phases=1

New Load.load_p12ulv4454_2 conn=wye bus1=p12ulv4454.2 kV=0.12 Vminpu=0.8 Vmaxpu=1.2 model=1 kW=2.940151571607843 kvar=0.7360323556900852 Phases=1

New Load.load_p12ulv4455_1 conn=wye bus1=p12ulv4455.1 kV=0.12 Vminpu=0.8 Vmaxpu=1.2 model=1 kW=2.606959916668558 kvar=0.5550307077474157 Phases=1

New Load.load_p12ulv4455_2 conn=wye bus1=p12ulv4455.2 kV=0.12 Vminpu=0.8 Vmaxpu=1.2 model=1 kW=2.606959916668558 kvar=0.5550307077474157 Phases=1

New Load.load_p12ulv4456_1 conn=wye bus1=p12ulv4456.1 kV=0.12 Vminpu=0.8 Vmaxpu=1.2 model=1 kW=2.606959916668558 kvar=0.5550307077474157 Phases=1

New Load.load_p12ulv4456_2 conn=wye bus1=p12ulv4456.2 kV=0.12 Vminpu=0.8 Vmaxpu=1.2 model=1 kW=2.606959916668558 kvar=0.5550307077474157 Phases=1

New Load.load_p12ulv4457 conn=wye bus1=p12ulv4457.1.2.3 kV=0.48 Vminpu=0.8 Vmaxpu=1.2 model=1 kW=17.91757366344069 kvar=1.8196874452156209 Phases=3

New Load.load_p12ulv4458_1 conn=wye bus1=p12ulv4458.1 kV=0.12 Vminpu=0.8 Vmaxpu=1.2 model=1 kW=1.9102523936464706 kvar=0.36753422396224456 Phases=1

New Load.load_p12ulv4458_2 conn=wye bus1=p12ulv4458.2 kV=0.12 Vminpu=0.8 Vmaxpu=1.2 model=1 kW=1.9102523936464706 kvar=0.36753422396224456 Phases=1

New Load.load_p12ulv4460_1 conn=wye bus1=p12ulv4460.1 kV=0.12 Vminpu=0.8 Vmaxpu=1.2 model=1 kW=2.606959916668558 kvar=0.5550307077474157 Phases=1

New Load.load_p12ulv4460_2 conn=wye bus1=p12ulv4460.2 kV=0.12 Vminpu=0.8 Vmaxpu=1.2 model=1 kW=2.606959916668558 kvar=0.5550307077474157 Phases=1

New Load.load_p12ulv4461_1 conn=wye bus1=p12ulv4461.1 kV=0.12 Vminpu=0.8 Vmaxpu=1.2 model=1 kW=3.025577912376512 kvar=0.6479907691217454 Phases=1

New Load.load_p12ulv4461_2 conn=wye bus1=p12ulv4461.2 kV=0.12 Vminpu=0.8 Vmaxpu=1.2 model=1 kW=3.025577912376512 kvar=0.6479907691217454 Phases=1

New Load.load_p12ulv4479_1 conn=wye bus1=p12ulv4479.1 kV=0.12 Vminpu=0.8 Vmaxpu=1.2 model=1 kW=4.683837113338961 kvar=0.8422673766412283 Phases=1

New Load.load_p12ulv4479_2 conn=wye bus1=p12ulv4479.2 kV=0.12 Vminpu=0.8 Vmaxpu=1.2 model=1 kW=4.683837113338961 kvar=0.8422673766412283 Phases=1

New Load.load_p12ulv4500_1 conn=wye bus1=p12ulv4500.1 kV=0.12 Vminpu=0.8 Vmaxpu=1.2 model=1 kW=1.794005533851084 kvar=0.6855099409421886 Phases=1

New Load.load_p12ulv4500_2 conn=wye bus1=p12ulv4500.2 kV=0.12 Vminpu=0.8 Vmaxpu=1.2 model=1 kW=1.794005533851084 kvar=0.6855099409421886 Phases=1

New Load.load_p12ulv4518_1 conn=wye bus1=p12ulv4518.1 kV=0.12 Vminpu=0.8 Vmaxpu=1.2 model=1 kW=1.5604078463831266 kvar=0.5882122505209306 Phases=1

New Load.load_p12ulv4518_2 conn=wye bus1=p12ulv4518.2 kV=0.12 Vminpu=0.8 Vmaxpu=1.2 model=1 kW=1.5604078463831266 kvar=0.5882122505209306 Phases=1

New Load.load_p12ulv4524_1 conn=wye bus1=p12ulv4524.1 kV=0.12 Vminpu=0.8 Vmaxpu=1.2 model=1 kW=1.5670847441713207 kvar=0.5540004468841006 Phases=1

New Load.load_p12ulv4524_2 conn=wye bus1=p12ulv4524.2 kV=0.12 Vminpu=0.8 Vmaxpu=1.2 model=1 kW=1.5670847441713207 kvar=0.5540004468841006 Phases=1

New Load.load_p12ulv4547_1 conn=wye bus1=p12ulv4547.1 kV=0.12 Vminpu=0.8 Vmaxpu=1.2 model=1 kW=0.6524083002915736 kvar=0.21201745820683848 Phases=1

New Load.load_p12ulv4547_2 conn=wye bus1=p12ulv4547.2 kV=0.12 Vminpu=0.8 Vmaxpu=1.2 model=1 kW=0.6524083002915736 kvar=0.21201745820683848 Phases=1

New Load.load_p12ulv9314_1 conn=wye bus1=p12ulv9314.1 kV=0.12 Vminpu=0.8 Vmaxpu=1.2 model=1 kW=1.7142625617629952 kvar=0.4166771141877461 Phases=1

New Load.load_p12ulv9314_2 conn=wye bus1=p12ulv9314.2 kV=0.12 Vminpu=0.8 Vmaxpu=1.2 model=1 kW=1.7142625617629952 kvar=0.4166771141877461 Phases=1

New Load.load_p12ulv9324_1 conn=wye bus1=p12ulv9324.1 kV=0.12 Vminpu=0.8 Vmaxpu=1.2 model=1 kW=2.4425535477014515 kvar=0.6934264438496061 Phases=1

New Load.load_p12ulv9324_2 conn=wye bus1=p12ulv9324.2 kV=0.12 Vminpu=0.8 Vmaxpu=1.2 model=1 kW=2.4425535477014515 kvar=0.6934264438496061 Phases=1

New Load.load_p12ulv9328_1 conn=wye bus1=p12ulv9328.1 kV=0.12 Vminpu=0.8 Vmaxpu=1.2 model=1 kW=3.4545951148645555 kvar=0.267674553409051 Phases=1

New Load.load_p12ulv9328_2 conn=wye bus1=p12ulv9328.2 kV=0.12 Vminpu=0.8 Vmaxpu=1.2 model=1 kW=3.4545951148645555 kvar=0.267674553409051 Phases=1

New Load.load_p12ulv9329_1 conn=wye bus1=p12ulv9329.1 kV=0.12 Vminpu=0.8 Vmaxpu=1.2 model=1 kW=3.7955530160091877 kvar=0.9939393246787002 Phases=1

New Load.load_p12ulv9329_2 conn=wye bus1=p12ulv9329.2 kV=0.12 Vminpu=0.8 Vmaxpu=1.2 model=1 kW=3.7955530160091877 kvar=0.9939393246787002 Phases=1

New Load.load_p12ulv9330_1 conn=wye bus1=p12ulv9330.1 kV=0.12 Vminpu=0.8 Vmaxpu=1.2 model=1 kW=2.501244965400895 kvar=0.7307193315393806 Phases=1

New Load.load_p12ulv9330_2 conn=wye bus1=p12ulv9330.2 kV=0.12 Vminpu=0.8 Vmaxpu=1.2 model=1 kW=2.501244965400895 kvar=0.7307193315393806 Phases=1

New Load.load_p12ulv9333 conn=wye bus1=p12ulv9333.1.2.3 kV=0.48 Vminpu=0.8 Vmaxpu=1.2 model=1 kW=34.41731004259801 kvar=7.546091824742515 Phases=3

New Load.load_p12ulv9340_1 conn=wye bus1=p12ulv9340.1 kV=0.12 Vminpu=0.8 Vmaxpu=1.2 model=1 kW=2.259610252563528 kvar=0.6002661771987786 Phases=1

New Load.load_p12ulv9340_2 conn=wye bus1=p12ulv9340.2 kV=0.12 Vminpu=0.8 Vmaxpu=1.2 model=1 kW=2.259610252563528 kvar=0.6002661771987786 Phases=1

New Load.load_p12ulv9342_1 conn=wye bus1=p12ulv9342.1 kV=0.12 Vminpu=0.8 Vmaxpu=1.2 model=1 kW=2.5906266465914705 kvar=0.5909884959248153 Phases=1

New Load.load_p12ulv9342_2 conn=wye bus1=p12ulv9342.2 kV=0.12 Vminpu=0.8 Vmaxpu=1.2 model=1 kW=2.5906266465914705 kvar=0.5909884959248153 Phases=1

New Load.load_p12ulv9348_1 conn=wye bus1=p12ulv9348.1 kV=0.12 Vminpu=0.8 Vmaxpu=1.2 model=1 kW=2.5479756413968033 kvar=0.727629962775584 Phases=1

New Load.load_p12ulv9348_2 conn=wye bus1=p12ulv9348.2 kV=0.12 Vminpu=0.8 Vmaxpu=1.2 model=1 kW=2.5479756413968033 kvar=0.727629962775584 Phases=1

New Load.load_p12ulv9349_1 conn=wye bus1=p12ulv9349.1 kV=0.12 Vminpu=0.8 Vmaxpu=1.2 model=1 kW=3.4326240486688357 kvar=0.8791975300623017 Phases=1

New Load.load_p12ulv9349_2 conn=wye bus1=p12ulv9349.2 kV=0.12 Vminpu=0.8 Vmaxpu=1.2 model=1 kW=3.4326240486688357 kvar=0.8791975300623017 Phases=1

New Load.load_p12ulv9352_1 conn=wye bus1=p12ulv9352.1 kV=0.12 Vminpu=0.8 Vmaxpu=1.2 model=1 kW=2.444725768387703 kvar=0.6902267912659802 Phases=1

New Load.load_p12ulv9352_2 conn=wye bus1=p12ulv9352.2 kV=0.12 Vminpu=0.8 Vmaxpu=1.2 model=1 kW=2.444725768387703 kvar=0.6902267912659802 Phases=1

New Load.load_p12ulv9355_1 conn=wye bus1=p12ulv9355.1 kV=0.12 Vminpu=0.8 Vmaxpu=1.2 model=1 kW=2.863293958343678 kvar=0.8456297301130261 Phases=1

New Load.load_p12ulv9355_2 conn=wye bus1=p12ulv9355.2 kV=0.12 Vminpu=0.8 Vmaxpu=1.2 model=1 kW=2.863293958343678 kvar=0.8456297301130261 Phases=1

New Load.load_p12ulv9367_1 conn=wye bus1=p12ulv9367.1 kV=0.12 Vminpu=0.8 Vmaxpu=1.2 model=1 kW=2.4473849682194437 kvar=0.3216194123870954 Phases=1

New Load.load_p12ulv9367_2 conn=wye bus1=p12ulv9367.2 kV=0.12 Vminpu=0.8 Vmaxpu=1.2 model=1 kW=2.4473849682194437 kvar=0.3216194123870954 Phases=1

New Load.load_p12ulv9368_1 conn=wye bus1=p12ulv9368.1 kV=0.12 Vminpu=0.8 Vmaxpu=1.2 model=1 kW=2.848181227821289 kvar=0.7500613200028317 Phases=1

New Load.load_p12ulv9368_2 conn=wye bus1=p12ulv9368.2 kV=0.12 Vminpu=0.8 Vmaxpu=1.2 model=1 kW=2.848181227821289 kvar=0.7500613200028317 Phases=1

New Load.load_p12ulv9378_1 conn=wye bus1=p12ulv9378.1 kV=0.12 Vminpu=0.8 Vmaxpu=1.2 model=1 kW=0.4441799645035155 kvar=0.1781240993632025 Phases=1

New Load.load_p12ulv9378_2 conn=wye bus1=p12ulv9378.2 kV=0.12 Vminpu=0.8 Vmaxpu=1.2 model=1 kW=0.4441799645035155 kvar=0.1781240993632025 Phases=1

New Load.load_p12ulv9383_1 conn=wye bus1=p12ulv9383.1 kV=0.12 Vminpu=0.8 Vmaxpu=1.2 model=1 kW=1.2050031130186265 kvar=0.2948161549366113 Phases=1

New Load.load_p12ulv9383_2 conn=wye bus1=p12ulv9383.2 kV=0.12 Vminpu=0.8 Vmaxpu=1.2 model=1 kW=1.2050031130186265 kvar=0.2948161549366113 Phases=1

New Load.load_p12ulv9390_1 conn=wye bus1=p12ulv9390.1 kV=0.12 Vminpu=0.8 Vmaxpu=1.2 model=1 kW=3.333425265663471 kvar=0.3442179031898818 Phases=1

New Load.load_p12ulv9390_2 conn=wye bus1=p12ulv9390.2 kV=0.12 Vminpu=0.8 Vmaxpu=1.2 model=1 kW=3.333425265663471 kvar=0.3442179031898818 Phases=1

New Load.load_p12ulv9396_1 conn=wye bus1=p12ulv9396.1 kV=0.12 Vminpu=0.8 Vmaxpu=1.2 model=1 kW=7.54048144625991 kvar=2.000845105794184 Phases=1

New Load.load_p12ulv9396_2 conn=wye bus1=p12ulv9396.2 kV=0.12 Vminpu=0.8 Vmaxpu=1.2 model=1 kW=7.54048144625991 kvar=2.000845105794184 Phases=1

New Load.load_p12ulv9398_1 conn=wye bus1=p12ulv9398.1 kV=0.12 Vminpu=0.8 Vmaxpu=1.2 model=1 kW=2.7935386970404408 kvar=0.018922139033990728 Phases=1

New Load.load_p12ulv9398_2 conn=wye bus1=p12ulv9398.2 kV=0.12 Vminpu=0.8 Vmaxpu=1.2 model=1 kW=2.7935386970404408 kvar=0.018922139033990728 Phases=1

New Load.load_p12ulv9424_1 conn=wye bus1=p12ulv9424.1 kV=0.12 Vminpu=0.8 Vmaxpu=1.2 model=1 kW=1.6844632506969115 kvar=0.4071315730781585 Phases=1

New Load.load_p12ulv9424_2 conn=wye bus1=p12ulv9424.2 kV=0.12 Vminpu=0.8 Vmaxpu=1.2 model=1 kW=1.6844632506969115 kvar=0.4071315730781585 Phases=1

New Load.load_p12ulv9431_1 conn=wye bus1=p12ulv9431.1 kV=0.12 Vminpu=0.8 Vmaxpu=1.2 model=1 kW=2.4622944887503224 kvar=0.10483650830237357 Phases=1

New Load.load_p12ulv9431_2 conn=wye bus1=p12ulv9431.2 kV=0.12 Vminpu=0.8 Vmaxpu=1.2 model=1 kW=2.4622944887503224 kvar=0.10483650830237357 Phases=1

New Load.load_p12ulv9454_1 conn=wye bus1=p12ulv9454.1 kV=0.12 Vminpu=0.8 Vmaxpu=1.2 model=1 kW=4.84153235443771 kvar=1.447226409705929 Phases=1

New Load.load_p12ulv9454_2 conn=wye bus1=p12ulv9454.2 kV=0.12 Vminpu=0.8 Vmaxpu=1.2 model=1 kW=4.84153235443771 kvar=1.447226409705929 Phases=1

New Load.load_p12ulv9458_1 conn=wye bus1=p12ulv9458.1 kV=0.12 Vminpu=0.8 Vmaxpu=1.2 model=1 kW=2.5894675485741283 kvar=0.1490920312952553 Phases=1

New Load.load_p12ulv9458_2 conn=wye bus1=p12ulv9458.2 kV=0.12 Vminpu=0.8 Vmaxpu=1.2 model=1 kW=2.5894675485741283 kvar=0.1490920312952553 Phases=1

New Load.load_p12ulv9459_1 conn=wye bus1=p12ulv9459.1 kV=0.12 Vminpu=0.8 Vmaxpu=1.2 model=1 kW=4.135997160302741 kvar=0.08664097239847122 Phases=1

New Load.load_p12ulv9459_2 conn=wye bus1=p12ulv9459.2 kV=0.12 Vminpu=0.8 Vmaxpu=1.2 model=1 kW=4.135997160302741 kvar=0.08664097239847122 Phases=1

New Load.load_p12ulv9467_1 conn=wye bus1=p12ulv9467.1 kV=0.12 Vminpu=0.8 Vmaxpu=1.2 model=1 kW=3.025577912376512 kvar=0.6479907691217454 Phases=1

New Load.load_p12ulv9467_2 conn=wye bus1=p12ulv9467.2 kV=0.12 Vminpu=0.8 Vmaxpu=1.2 model=1 kW=3.025577912376512 kvar=0.6479907691217454 Phases=1

New Load.load_p12ulv9470_1 conn=wye bus1=p12ulv9470.1 kV=0.12 Vminpu=0.8 Vmaxpu=1.2 model=1 kW=1.7142625617629952 kvar=0.4166771141877461 Phases=1

New Load.load_p12ulv9470_2 conn=wye bus1=p12ulv9470.2 kV=0.12 Vminpu=0.8 Vmaxpu=1.2 model=1 kW=1.7142625617629952 kvar=0.4166771141877461 Phases=1

New Load.load_p12ulv9491_1 conn=wye bus1=p12ulv9491.1 kV=0.12 Vminpu=0.8 Vmaxpu=1.2 model=1 kW=2.0873737879256953 kvar=0.4232635240746854 Phases=1

New Load.load_p12ulv9491_2 conn=wye bus1=p12ulv9491.2 kV=0.12 Vminpu=0.8 Vmaxpu=1.2 model=1 kW=2.0873737879256953 kvar=0.4232635240746854 Phases=1

New Load.load_p12ulv9498_1 conn=wye bus1=p12ulv9498.1 kV=0.12 Vminpu=0.8 Vmaxpu=1.2 model=1 kW=2.5906266465914705 kvar=0.5909884959248153 Phases=1

New Load.load_p12ulv9498_2 conn=wye bus1=p12ulv9498.2 kV=0.12 Vminpu=0.8 Vmaxpu=1.2 model=1 kW=2.5906266465914705 kvar=0.5909884959248153 Phases=1

New Load.load_p12ulv9499_1 conn=wye bus1=p12ulv9499.1 kV=0.12 Vminpu=0.8 Vmaxpu=1.2 model=1 kW=2.4519136613739017 kvar=0.7054970531635038 Phases=1

New Load.load_p12ulv9499_2 conn=wye bus1=p12ulv9499.2 kV=0.12 Vminpu=0.8 Vmaxpu=1.2 model=1 kW=2.4519136613739017 kvar=0.7054970531635038 Phases=1

New Load.load_p12ulv9500_1 conn=wye bus1=p12ulv9500.1 kV=0.12 Vminpu=0.8 Vmaxpu=1.2 model=1 kW=2.5906266465914705 kvar=0.5909884959248153 Phases=1

New Load.load_p12ulv9500_2 conn=wye bus1=p12ulv9500.2 kV=0.12 Vminpu=0.8 Vmaxpu=1.2 model=1 kW=2.5906266465914705 kvar=0.5909884959248153 Phases=1

New Load.load_p12ulv9502_1 conn=wye bus1=p12ulv9502.1 kV=0.12 Vminpu=0.8 Vmaxpu=1.2 model=1 kW=2.0263288002917053 kvar=0.546221099657035 Phases=1

New Load.load_p12ulv9502_2 conn=wye bus1=p12ulv9502.2 kV=0.12 Vminpu=0.8 Vmaxpu=1.2 model=1 kW=2.0263288002917053 kvar=0.546221099657035 Phases=1

New Load.load_p12ulv9507_1 conn=wye bus1=p12ulv9507.1 kV=0.12 Vminpu=0.8 Vmaxpu=1.2 model=1 kW=1.4699462180170992 kvar=0.3815978523472859 Phases=1

New Load.load_p12ulv9507_2 conn=wye bus1=p12ulv9507.2 kV=0.12 Vminpu=0.8 Vmaxpu=1.2 model=1 kW=1.4699462180170992 kvar=0.3815978523472859 Phases=1

New Load.load_p12ulv9508_1 conn=wye bus1=p12ulv9508.1 kV=0.12 Vminpu=0.8 Vmaxpu=1.2 model=1 kW=2.940151571607843 kvar=0.7360323556900852 Phases=1

New Load.load_p12ulv9508_2 conn=wye bus1=p12ulv9508.2 kV=0.12 Vminpu=0.8 Vmaxpu=1.2 model=1 kW=2.940151571607843 kvar=0.7360323556900852 Phases=1

New Load.load_p12ulv9529_1 conn=wye bus1=p12ulv9529.1 kV=0.12 Vminpu=0.8 Vmaxpu=1.2 model=1 kW=1.9102523936464706 kvar=0.36753422396224456 Phases=1

New Load.load_p12ulv9529_2 conn=wye bus1=p12ulv9529.2 kV=0.12 Vminpu=0.8 Vmaxpu=1.2 model=1 kW=1.9102523936464706 kvar=0.36753422396224456 Phases=1

New Load.load_p12ulv9539_1 conn=wye bus1=p12ulv9539.1 kV=0.12 Vminpu=0.8 Vmaxpu=1.2 model=1 kW=2.032692214158918 kvar=0.5109700530012344 Phases=1

New Load.load_p12ulv9539_2 conn=wye bus1=p12ulv9539.2 kV=0.12 Vminpu=0.8 Vmaxpu=1.2 model=1 kW=2.032692214158918 kvar=0.5109700530012344 Phases=1

New Load.load_p12ulv9546_1 conn=wye bus1=p12ulv9546.1 kV=0.12 Vminpu=0.8 Vmaxpu=1.2 model=1 kW=3.6849315736247465 kvar=0.26435587266661026 Phases=1

New Load.load_p12ulv9546_2 conn=wye bus1=p12ulv9546.2 kV=0.12 Vminpu=0.8 Vmaxpu=1.2 model=1 kW=3.6849315736247465 kvar=0.26435587266661026 Phases=1

New Load.load_p12ulv9549_1 conn=wye bus1=p12ulv9549.1 kV=0.12 Vminpu=0.8 Vmaxpu=1.2 model=1 kW=3.0772156037646567 kvar=0.01984596164170695 Phases=1

New Load.load_p12ulv9549_2 conn=wye bus1=p12ulv9549.2 kV=0.12 Vminpu=0.8 Vmaxpu=1.2 model=1 kW=3.0772156037646567 kvar=0.01984596164170695 Phases=1

New Load.load_p12ulv9556_1 conn=wye bus1=p12ulv9556.1 kV=0.12 Vminpu=0.8 Vmaxpu=1.2 model=1 kW=3.0772156037646567 kvar=0.01984596164170695 Phases=1

New Load.load_p12ulv9556_2 conn=wye bus1=p12ulv9556.2 kV=0.12 Vminpu=0.8 Vmaxpu=1.2 model=1 kW=3.0772156037646567 kvar=0.01984596164170695 Phases=1

New Load.load_p12ulv9562_1 conn=wye bus1=p12ulv9562.1 kV=0.12 Vminpu=0.8 Vmaxpu=1.2 model=1 kW=2.0263288002917053 kvar=0.546221099657035 Phases=1

New Load.load_p12ulv9562_2 conn=wye bus1=p12ulv9562.2 kV=0.12 Vminpu=0.8 Vmaxpu=1.2 model=1 kW=2.0263288002917053 kvar=0.546221099657035 Phases=1

New Load.load_p12ulv9564_1 conn=wye bus1=p12ulv9564.1 kV=0.12 Vminpu=0.8 Vmaxpu=1.2 model=1 kW=0.4585094523583652 kvar=0.19519922093662737 Phases=1

New Load.load_p12ulv9564_2 conn=wye bus1=p12ulv9564.2 kV=0.12 Vminpu=0.8 Vmaxpu=1.2 model=1 kW=0.4585094523583652 kvar=0.19519922093662737 Phases=1

New Load.load_p12ulv9568_1 conn=wye bus1=p12ulv9568.1 kV=0.12 Vminpu=0.8 Vmaxpu=1.2 model=1 kW=2.725954562298933 kvar=0.5866148963219024 Phases=1

New Load.load_p12ulv9568_2 conn=wye bus1=p12ulv9568.2 kV=0.12 Vminpu=0.8 Vmaxpu=1.2 model=1 kW=2.725954562298933 kvar=0.5866148963219024 Phases=1

New Load.load_p12ulv9569_1 conn=wye bus1=p12ulv9569.1 kV=0.12 Vminpu=0.8 Vmaxpu=1.2 model=1 kW=1.1211291861785844 kvar=0.48375648015097145 Phases=1

New Load.load_p12ulv9569_2 conn=wye bus1=p12ulv9569.2 kV=0.12 Vminpu=0.8 Vmaxpu=1.2 model=1 kW=1.1211291861785844 kvar=0.48375648015097145 Phases=1

New Load.load_p12ulv9573_1 conn=wye bus1=p12ulv9573.1 kV=0.12 Vminpu=0.8 Vmaxpu=1.2 model=1 kW=2.4614642004392735 kvar=0.694642854224167 Phases=1

New Load.load_p12ulv9573_2 conn=wye bus1=p12ulv9573.2 kV=0.12 Vminpu=0.8 Vmaxpu=1.2 model=1 kW=2.4614642004392735 kvar=0.694642854224167 Phases=1

New Load.load_p12ulv9574_1 conn=wye bus1=p12ulv9574.1 kV=0.12 Vminpu=0.8 Vmaxpu=1.2 model=1 kW=1.2437699409140923 kvar=0.5571842941855458 Phases=1

New Load.load_p12ulv9574_2 conn=wye bus1=p12ulv9574.2 kV=0.12 Vminpu=0.8 Vmaxpu=1.2 model=1 kW=1.2437699409140923 kvar=0.5571842941855458 Phases=1

New Load.load_p12ulv9575_1 conn=wye bus1=p12ulv9575.1 kV=0.12 Vminpu=0.8 Vmaxpu=1.2 model=1 kW=0.3919966449037446 kvar=0.25526897783955566 Phases=1

New Load.load_p12ulv9575_2 conn=wye bus1=p12ulv9575.2 kV=0.12 Vminpu=0.8 Vmaxpu=1.2 model=1 kW=0.3919966449037446 kvar=0.25526897783955566 Phases=1

New Load.load_p12ulv9589_1 conn=wye bus1=p12ulv9589.1 kV=0.12 Vminpu=0.8 Vmaxpu=1.2 model=1 kW=2.982001566238855 kvar=0.6624581034254765 Phases=1

New Load.load_p12ulv9589_2 conn=wye bus1=p12ulv9589.2 kV=0.12 Vminpu=0.8 Vmaxpu=1.2 model=1 kW=2.982001566238855 kvar=0.6624581034254765 Phases=1

New Load.load_p12ulv9595_1 conn=wye bus1=p12ulv9595.1 kV=0.12 Vminpu=0.8 Vmaxpu=1.2 model=1 kW=2.606959916668558 kvar=0.5550307077474157 Phases=1

New Load.load_p12ulv9595_2 conn=wye bus1=p12ulv9595.2 kV=0.12 Vminpu=0.8 Vmaxpu=1.2 model=1 kW=2.606959916668558 kvar=0.5550307077474157 Phases=1

New Load.load_p12ulv9599_1 conn=wye bus1=p12ulv9599.1 kV=0.12 Vminpu=0.8 Vmaxpu=1.2 model=1 kW=2.606959916668558 kvar=0.5550307077474157 Phases=1

New Load.load_p12ulv9599_2 conn=wye bus1=p12ulv9599.2 kV=0.12 Vminpu=0.8 Vmaxpu=1.2 model=1 kW=2.606959916668558 kvar=0.5550307077474157 Phases=1

New Load.load_p12ulv9605_1 conn=wye bus1=p12ulv9605.1 kV=0.12 Vminpu=0.8 Vmaxpu=1.2 model=1 kW=0.5348201699646123 kvar=0.21241824123648728 Phases=1

New Load.load_p12ulv9605_2 conn=wye bus1=p12ulv9605.2 kV=0.12 Vminpu=0.8 Vmaxpu=1.2 model=1 kW=0.5348201699646123 kvar=0.21241824123648728 Phases=1

New Load.load_p12ulv9616_1 conn=wye bus1=p12ulv9616.1 kV=0.12 Vminpu=0.8 Vmaxpu=1.2 model=1 kW=0.9179777962446224 kvar=0.3481400399277513 Phases=1

New Load.load_p12ulv9616_2 conn=wye bus1=p12ulv9616.2 kV=0.12 Vminpu=0.8 Vmaxpu=1.2 model=1 kW=0.9179777962446224 kvar=0.3481400399277513 Phases=1

New Load.load_p12ulv9618_1 conn=wye bus1=p12ulv9618.1 kV=0.12 Vminpu=0.8 Vmaxpu=1.2 model=1 kW=1.1104349785731977 kvar=0.4157578117731551 Phases=1

New Load.load_p12ulv9618_2 conn=wye bus1=p12ulv9618.2 kV=0.12 Vminpu=0.8 Vmaxpu=1.2 model=1 kW=1.1104349785731977 kvar=0.4157578117731551 Phases=1

New Load.load_p12ulv9619_1 conn=wye bus1=p12ulv9619.1 kV=0.12 Vminpu=0.8 Vmaxpu=1.2 model=1 kW=2.340123280881575 kvar=0.28306337277173615 Phases=1

New Load.load_p12ulv9619_2 conn=wye bus1=p12ulv9619.2 kV=0.12 Vminpu=0.8 Vmaxpu=1.2 model=1 kW=2.340123280881575 kvar=0.28306337277173615 Phases=1

New Load.load_p12ulv9620_1 conn=wye bus1=p12ulv9620.1 kV=0.12 Vminpu=0.8 Vmaxpu=1.2 model=1 kW=2.499057743464556 kvar=0.3373788699823939 Phases=1

New Load.load_p12ulv9620_2 conn=wye bus1=p12ulv9620.2 kV=0.12 Vminpu=0.8 Vmaxpu=1.2 model=1 kW=2.499057743464556 kvar=0.3373788699823939 Phases=1

New Load.load_p12ulv10683_1 conn=wye bus1=p12ulv10683.1 kV=0.12 Vminpu=0.8 Vmaxpu=1.2 model=1 kW=1.5877230897388055 kvar=0.4388767979233367 Phases=1

New Load.load_p12ulv10683_2 conn=wye bus1=p12ulv10683.2 kV=0.12 Vminpu=0.8 Vmaxpu=1.2 model=1 kW=1.5877230897388055 kvar=0.4388767979233367 Phases=1
