New Loadshape.res_kw_6859_pu npts= 35040 interval=0.25 mult = (file=../../../../../profiles/res_kw_6859_pu.csv) qmult = (file=../../../../../profiles/res_kvar_6859_pu.csv)

New Loadshape.res_kw_5106_pu npts= 35040 interval=0.25 mult = (file=../../../../../profiles/res_kw_5106_pu.csv) qmult = (file=../../../../../profiles/res_kvar_5106_pu.csv)

New Loadshape.res_kw_7590_pu npts= 35040 interval=0.25 mult = (file=../../../../../profiles/res_kw_7590_pu.csv) qmult = (file=../../../../../profiles/res_kvar_7590_pu.csv)

New Loadshape.res_kw_13148_pu npts= 35040 interval=0.25 mult = (file=../../../../../profiles/res_kw_13148_pu.csv) qmult = (file=../../../../../profiles/res_kvar_13148_pu.csv)

New Loadshape.res_kw_4808_pu npts= 35040 interval=0.25 mult = (file=../../../../../profiles/res_kw_4808_pu.csv) qmult = (file=../../../../../profiles/res_kvar_4808_pu.csv)

New Loadshape.res_kw_11147_pu npts= 35040 interval=0.25 mult = (file=../../../../../profiles/res_kw_11147_pu.csv) qmult = (file=../../../../../profiles/res_kvar_11147_pu.csv)

New Loadshape.res_kw_13175_pu npts= 35040 interval=0.25 mult = (file=../../../../../profiles/res_kw_13175_pu.csv) qmult = (file=../../../../../profiles/res_kvar_13175_pu.csv)

New Loadshape.res_kw_9032_pu npts= 35040 interval=0.25 mult = (file=../../../../../profiles/res_kw_9032_pu.csv) qmult = (file=../../../../../profiles/res_kvar_9032_pu.csv)

New Loadshape.res_kw_13043_pu npts= 35040 interval=0.25 mult = (file=../../../../../profiles/res_kw_13043_pu.csv) qmult = (file=../../../../../profiles/res_kvar_13043_pu.csv)

New Loadshape.res_kw_7343_pu npts= 35040 interval=0.25 mult = (file=../../../../../profiles/res_kw_7343_pu.csv) qmult = (file=../../../../../profiles/res_kvar_7343_pu.csv)

New Loadshape.res_kw_11926_pu npts= 35040 interval=0.25 mult = (file=../../../../../profiles/res_kw_11926_pu.csv) qmult = (file=../../../../../profiles/res_kvar_11926_pu.csv)

New Loadshape.res_kw_8268_pu npts= 35040 interval=0.25 mult = (file=../../../../../profiles/res_kw_8268_pu.csv) qmult = (file=../../../../../profiles/res_kvar_8268_pu.csv)

New Loadshape.res_kw_1527_pu npts= 35040 interval=0.25 mult = (file=../../../../../profiles/res_kw_1527_pu.csv) qmult = (file=../../../../../profiles/res_kvar_1527_pu.csv)

New Loadshape.res_kw_10584_pu npts= 35040 interval=0.25 mult = (file=../../../../../profiles/res_kw_10584_pu.csv) qmult = (file=../../../../../profiles/res_kvar_10584_pu.csv)

New Loadshape.res_kw_14133_pu npts= 35040 interval=0.25 mult = (file=../../../../../profiles/res_kw_14133_pu.csv) qmult = (file=../../../../../profiles/res_kvar_14133_pu.csv)

New Loadshape.res_kw_4069_pu npts= 35040 interval=0.25 mult = (file=../../../../../profiles/res_kw_4069_pu.csv) qmult = (file=../../../../../profiles/res_kvar_4069_pu.csv)

New Loadshape.res_kw_548_pu npts= 35040 interval=0.25 mult = (file=../../../../../profiles/res_kw_548_pu.csv) qmult = (file=../../../../../profiles/res_kvar_548_pu.csv)

New Loadshape.res_kw_8064_pu npts= 35040 interval=0.25 mult = (file=../../../../../profiles/res_kw_8064_pu.csv) qmult = (file=../../../../../profiles/res_kvar_8064_pu.csv)

New Loadshape.res_kw_14952_pu npts= 35040 interval=0.25 mult = (file=../../../../../profiles/res_kw_14952_pu.csv) qmult = (file=../../../../../profiles/res_kvar_14952_pu.csv)

New Loadshape.res_kw_10803_pu npts= 35040 interval=0.25 mult = (file=../../../../../profiles/res_kw_10803_pu.csv) qmult = (file=../../../../../profiles/res_kvar_10803_pu.csv)

New Loadshape.res_kw_3029_pu npts= 35040 interval=0.25 mult = (file=../../../../../profiles/res_kw_3029_pu.csv) qmult = (file=../../../../../profiles/res_kvar_3029_pu.csv)

New Loadshape.res_kw_7385_pu npts= 35040 interval=0.25 mult = (file=../../../../../profiles/res_kw_7385_pu.csv) qmult = (file=../../../../../profiles/res_kvar_7385_pu.csv)

New Loadshape.res_kw_14441_pu npts= 35040 interval=0.25 mult = (file=../../../../../profiles/res_kw_14441_pu.csv) qmult = (file=../../../../../profiles/res_kvar_14441_pu.csv)

New Loadshape.res_kw_7362_pu npts= 35040 interval=0.25 mult = (file=../../../../../profiles/res_kw_7362_pu.csv) qmult = (file=../../../../../profiles/res_kvar_7362_pu.csv)

New Loadshape.res_kw_14805_pu npts= 35040 interval=0.25 mult = (file=../../../../../profiles/res_kw_14805_pu.csv) qmult = (file=../../../../../profiles/res_kvar_14805_pu.csv)

New Loadshape.res_kw_8723_pu npts= 35040 interval=0.25 mult = (file=../../../../../profiles/res_kw_8723_pu.csv) qmult = (file=../../../../../profiles/res_kvar_8723_pu.csv)

New Loadshape.res_kw_11875_pu npts= 35040 interval=0.25 mult = (file=../../../../../profiles/res_kw_11875_pu.csv) qmult = (file=../../../../../profiles/res_kvar_11875_pu.csv)

New Loadshape.res_kw_1372_pu npts= 35040 interval=0.25 mult = (file=../../../../../profiles/res_kw_1372_pu.csv) qmult = (file=../../../../../profiles/res_kvar_1372_pu.csv)

New Loadshape.res_kw_2814_pu npts= 35040 interval=0.25 mult = (file=../../../../../profiles/res_kw_2814_pu.csv) qmult = (file=../../../../../profiles/res_kvar_2814_pu.csv)

New Loadshape.res_kw_7715_pu npts= 35040 interval=0.25 mult = (file=../../../../../profiles/res_kw_7715_pu.csv) qmult = (file=../../../../../profiles/res_kvar_7715_pu.csv)

New Loadshape.res_kw_12783_pu npts= 35040 interval=0.25 mult = (file=../../../../../profiles/res_kw_12783_pu.csv) qmult = (file=../../../../../profiles/res_kvar_12783_pu.csv)

New Loadshape.res_kw_13443_pu npts= 35040 interval=0.25 mult = (file=../../../../../profiles/res_kw_13443_pu.csv) qmult = (file=../../../../../profiles/res_kvar_13443_pu.csv)

New Loadshape.res_kw_5464_pu npts= 35040 interval=0.25 mult = (file=../../../../../profiles/res_kw_5464_pu.csv) qmult = (file=../../../../../profiles/res_kvar_5464_pu.csv)

New Loadshape.res_kw_15189_pu npts= 35040 interval=0.25 mult = (file=../../../../../profiles/res_kw_15189_pu.csv) qmult = (file=../../../../../profiles/res_kvar_15189_pu.csv)

New Loadshape.res_kw_12150_pu npts= 35040 interval=0.25 mult = (file=../../../../../profiles/res_kw_12150_pu.csv) qmult = (file=../../../../../profiles/res_kvar_12150_pu.csv)

New Loadshape.res_kw_2453_pu npts= 35040 interval=0.25 mult = (file=../../../../../profiles/res_kw_2453_pu.csv) qmult = (file=../../../../../profiles/res_kvar_2453_pu.csv)

New Loadshape.res_kw_11149_pu npts= 35040 interval=0.25 mult = (file=../../../../../profiles/res_kw_11149_pu.csv) qmult = (file=../../../../../profiles/res_kvar_11149_pu.csv)

New Loadshape.res_kw_6243_pu npts= 35040 interval=0.25 mult = (file=../../../../../profiles/res_kw_6243_pu.csv) qmult = (file=../../../../../profiles/res_kvar_6243_pu.csv)

New Loadshape.res_kw_15158_pu npts= 35040 interval=0.25 mult = (file=../../../../../profiles/res_kw_15158_pu.csv) qmult = (file=../../../../../profiles/res_kvar_15158_pu.csv)

New Loadshape.res_kw_14158_pu npts= 35040 interval=0.25 mult = (file=../../../../../profiles/res_kw_14158_pu.csv) qmult = (file=../../../../../profiles/res_kvar_14158_pu.csv)

New Loadshape.res_kw_1213_pu npts= 35040 interval=0.25 mult = (file=../../../../../profiles/res_kw_1213_pu.csv) qmult = (file=../../../../../profiles/res_kvar_1213_pu.csv)

New Loadshape.res_kw_10014_pu npts= 35040 interval=0.25 mult = (file=../../../../../profiles/res_kw_10014_pu.csv) qmult = (file=../../../../../profiles/res_kvar_10014_pu.csv)

New Loadshape.res_kw_13230_pu npts= 35040 interval=0.25 mult = (file=../../../../../profiles/res_kw_13230_pu.csv) qmult = (file=../../../../../profiles/res_kvar_13230_pu.csv)

New Loadshape.res_kw_12009_pu npts= 35040 interval=0.25 mult = (file=../../../../../profiles/res_kw_12009_pu.csv) qmult = (file=../../../../../profiles/res_kvar_12009_pu.csv)

New Loadshape.res_kw_15065_pu npts= 35040 interval=0.25 mult = (file=../../../../../profiles/res_kw_15065_pu.csv) qmult = (file=../../../../../profiles/res_kvar_15065_pu.csv)

New Loadshape.res_kw_14271_pu npts= 35040 interval=0.25 mult = (file=../../../../../profiles/res_kw_14271_pu.csv) qmult = (file=../../../../../profiles/res_kvar_14271_pu.csv)

New Loadshape.res_kw_10966_pu npts= 35040 interval=0.25 mult = (file=../../../../../profiles/res_kw_10966_pu.csv) qmult = (file=../../../../../profiles/res_kvar_10966_pu.csv)

New Loadshape.res_kw_4683_pu npts= 35040 interval=0.25 mult = (file=../../../../../profiles/res_kw_4683_pu.csv) qmult = (file=../../../../../profiles/res_kvar_4683_pu.csv)

New Loadshape.res_kw_10943_pu npts= 35040 interval=0.25 mult = (file=../../../../../profiles/res_kw_10943_pu.csv) qmult = (file=../../../../../profiles/res_kvar_10943_pu.csv)

New Loadshape.res_kw_7885_pu npts= 35040 interval=0.25 mult = (file=../../../../../profiles/res_kw_7885_pu.csv) qmult = (file=../../../../../profiles/res_kvar_7885_pu.csv)

New Loadshape.res_kw_8605_pu npts= 35040 interval=0.25 mult = (file=../../../../../profiles/res_kw_8605_pu.csv) qmult = (file=../../../../../profiles/res_kvar_8605_pu.csv)

New Loadshape.res_kw_2400_pu npts= 35040 interval=0.25 mult = (file=../../../../../profiles/res_kw_2400_pu.csv) qmult = (file=../../../../../profiles/res_kvar_2400_pu.csv)

New Loadshape.res_kw_4295_pu npts= 35040 interval=0.25 mult = (file=../../../../../profiles/res_kw_4295_pu.csv) qmult = (file=../../../../../profiles/res_kvar_4295_pu.csv)

New Loadshape.res_kw_2179_pu npts= 35040 interval=0.25 mult = (file=../../../../../profiles/res_kw_2179_pu.csv) qmult = (file=../../../../../profiles/res_kvar_2179_pu.csv)

New Loadshape.res_kw_14661_pu npts= 35040 interval=0.25 mult = (file=../../../../../profiles/res_kw_14661_pu.csv) qmult = (file=../../../../../profiles/res_kvar_14661_pu.csv)

New Loadshape.com_kw_32123_pu npts= 35040 interval=0.25 mult = (file=../../../../../profiles/com_kw_32123_pu.csv) qmult = (file=../../../../../profiles/com_kvar_32123_pu.csv)

New Loadshape.com_kw_33846_pu npts= 35040 interval=0.25 mult = (file=../../../../../profiles/com_kw_33846_pu.csv) qmult = (file=../../../../../profiles/com_kvar_33846_pu.csv)

New Loadshape.com_kw_16677_pu npts= 35040 interval=0.25 mult = (file=../../../../../profiles/com_kw_16677_pu.csv) qmult = (file=../../../../../profiles/com_kvar_16677_pu.csv)

New Loadshape.com_kw_29469_pu npts= 35040 interval=0.25 mult = (file=../../../../../profiles/com_kw_29469_pu.csv) qmult = (file=../../../../../profiles/com_kvar_29469_pu.csv)

New Loadshape.com_kw_1743_pu npts= 35040 interval=0.25 mult = (file=../../../../../profiles/com_kw_1743_pu.csv) qmult = (file=../../../../../profiles/com_kvar_1743_pu.csv)

New Loadshape.com_kw_33747_pu npts= 35040 interval=0.25 mult = (file=../../../../../profiles/com_kw_33747_pu.csv) qmult = (file=../../../../../profiles/com_kvar_33747_pu.csv)

New Loadshape.com_kw_29287_pu npts= 35040 interval=0.25 mult = (file=../../../../../profiles/com_kw_29287_pu.csv) qmult = (file=../../../../../profiles/com_kvar_29287_pu.csv)

New Loadshape.com_kw_31911_pu npts= 35040 interval=0.25 mult = (file=../../../../../profiles/com_kw_31911_pu.csv) qmult = (file=../../../../../profiles/com_kvar_31911_pu.csv)

New Loadshape.com_kw_29686_pu npts= 35040 interval=0.25 mult = (file=../../../../../profiles/com_kw_29686_pu.csv) qmult = (file=../../../../../profiles/com_kvar_29686_pu.csv)

New Loadshape.com_kw_29395_pu npts= 35040 interval=0.25 mult = (file=../../../../../profiles/com_kw_29395_pu.csv) qmult = (file=../../../../../profiles/com_kvar_29395_pu.csv)

New Loadshape.com_kw_29107_pu npts= 35040 interval=0.25 mult = (file=../../../../../profiles/com_kw_29107_pu.csv) qmult = (file=../../../../../profiles/com_kvar_29107_pu.csv)

New Loadshape.com_kw_35494_pu npts= 35040 interval=0.25 mult = (file=../../../../../profiles/com_kw_35494_pu.csv) qmult = (file=../../../../../profiles/com_kvar_35494_pu.csv)

New Loadshape.com_kw_1777_pu npts= 35040 interval=0.25 mult = (file=../../../../../profiles/com_kw_1777_pu.csv) qmult = (file=../../../../../profiles/com_kvar_1777_pu.csv)

New Loadshape.com_kw_29656_pu npts= 35040 interval=0.25 mult = (file=../../../../../profiles/com_kw_29656_pu.csv) qmult = (file=../../../../../profiles/com_kvar_29656_pu.csv)

New Loadshape.com_kw_41422_pu npts= 35040 interval=0.25 mult = (file=../../../../../profiles/com_kw_41422_pu.csv) qmult = (file=../../../../../profiles/com_kvar_41422_pu.csv)

New Loadshape.com_kw_31549_pu npts= 35040 interval=0.25 mult = (file=../../../../../profiles/com_kw_31549_pu.csv) qmult = (file=../../../../../profiles/com_kvar_31549_pu.csv)

New Loadshape.com_kw_17581_pu npts= 35040 interval=0.25 mult = (file=../../../../../profiles/com_kw_17581_pu.csv) qmult = (file=../../../../../profiles/com_kvar_17581_pu.csv)

New Loadshape.com_kw_1949_pu npts= 35040 interval=0.25 mult = (file=../../../../../profiles/com_kw_1949_pu.csv) qmult = (file=../../../../../profiles/com_kvar_1949_pu.csv)

New Loadshape.com_kw_39212_pu npts= 35040 interval=0.25 mult = (file=../../../../../profiles/com_kw_39212_pu.csv) qmult = (file=../../../../../profiles/com_kvar_39212_pu.csv)

New Loadshape.com_kw_2490_pu npts= 35040 interval=0.25 mult = (file=../../../../../profiles/com_kw_2490_pu.csv) qmult = (file=../../../../../profiles/com_kvar_2490_pu.csv)

New Loadshape.com_kw_2606_pu npts= 35040 interval=0.25 mult = (file=../../../../../profiles/com_kw_2606_pu.csv) qmult = (file=../../../../../profiles/com_kvar_2606_pu.csv)

New Loadshape.com_kw_32152_pu npts= 35040 interval=0.25 mult = (file=../../../../../profiles/com_kw_32152_pu.csv) qmult = (file=../../../../../profiles/com_kvar_32152_pu.csv)

New Loadshape.com_kw_35542_pu npts= 35040 interval=0.25 mult = (file=../../../../../profiles/com_kw_35542_pu.csv) qmult = (file=../../../../../profiles/com_kvar_35542_pu.csv)

New Loadshape.com_kw_39448_pu npts= 35040 interval=0.25 mult = (file=../../../../../profiles/com_kw_39448_pu.csv) qmult = (file=../../../../../profiles/com_kvar_39448_pu.csv)

New Loadshape.com_kw_22751_pu npts= 35040 interval=0.25 mult = (file=../../../../../profiles/com_kw_22751_pu.csv) qmult = (file=../../../../../profiles/com_kvar_22751_pu.csv)

New Loadshape.com_kw_34135_pu npts= 35040 interval=0.25 mult = (file=../../../../../profiles/com_kw_34135_pu.csv) qmult = (file=../../../../../profiles/com_kvar_34135_pu.csv)

New Loadshape.com_kw_33605_pu npts= 35040 interval=0.25 mult = (file=../../../../../profiles/com_kw_33605_pu.csv) qmult = (file=../../../../../profiles/com_kvar_33605_pu.csv)

New Loadshape.com_kw_20706_pu npts= 35040 interval=0.25 mult = (file=../../../../../profiles/com_kw_20706_pu.csv) qmult = (file=../../../../../profiles/com_kvar_20706_pu.csv)

New Loadshape.com_kw_22637_pu npts= 35040 interval=0.25 mult = (file=../../../../../profiles/com_kw_22637_pu.csv) qmult = (file=../../../../../profiles/com_kvar_22637_pu.csv)

New Loadshape.com_kw_29552_pu npts= 35040 interval=0.25 mult = (file=../../../../../profiles/com_kw_29552_pu.csv) qmult = (file=../../../../../profiles/com_kvar_29552_pu.csv)

New Loadshape.com_kw_17845_pu npts= 35040 interval=0.25 mult = (file=../../../../../profiles/com_kw_17845_pu.csv) qmult = (file=../../../../../profiles/com_kvar_17845_pu.csv)

New Loadshape.com_kw_41478_pu npts= 35040 interval=0.25 mult = (file=../../../../../profiles/com_kw_41478_pu.csv) qmult = (file=../../../../../profiles/com_kvar_41478_pu.csv)

New Loadshape.com_kw_17799_pu npts= 35040 interval=0.25 mult = (file=../../../../../profiles/com_kw_17799_pu.csv) qmult = (file=../../../../../profiles/com_kvar_17799_pu.csv)

New Loadshape.com_kw_16483_pu npts= 35040 interval=0.25 mult = (file=../../../../../profiles/com_kw_16483_pu.csv) qmult = (file=../../../../../profiles/com_kvar_16483_pu.csv)

New Loadshape.com_kw_16878_pu npts= 35040 interval=0.25 mult = (file=../../../../../profiles/com_kw_16878_pu.csv) qmult = (file=../../../../../profiles/com_kvar_16878_pu.csv)

New Loadshape.com_kw_39952_pu npts= 35040 interval=0.25 mult = (file=../../../../../profiles/com_kw_39952_pu.csv) qmult = (file=../../../../../profiles/com_kvar_39952_pu.csv)

New Loadshape.com_kw_19546_pu npts= 35040 interval=0.25 mult = (file=../../../../../profiles/com_kw_19546_pu.csv) qmult = (file=../../../../../profiles/com_kvar_19546_pu.csv)

New Loadshape.com_kw_18218_pu npts= 35040 interval=0.25 mult = (file=../../../../../profiles/com_kw_18218_pu.csv) qmult = (file=../../../../../profiles/com_kvar_18218_pu.csv)

New Loadshape.com_kw_2032_pu npts= 35040 interval=0.25 mult = (file=../../../../../profiles/com_kw_2032_pu.csv) qmult = (file=../../../../../profiles/com_kvar_2032_pu.csv)

New Loadshape.com_kw_35482_pu npts= 35040 interval=0.25 mult = (file=../../../../../profiles/com_kw_35482_pu.csv) qmult = (file=../../../../../profiles/com_kvar_35482_pu.csv)

New Loadshape.com_kw_41563_pu npts= 35040 interval=0.25 mult = (file=../../../../../profiles/com_kw_41563_pu.csv) qmult = (file=../../../../../profiles/com_kvar_41563_pu.csv)

New Loadshape.com_kw_18291_pu npts= 35040 interval=0.25 mult = (file=../../../../../profiles/com_kw_18291_pu.csv) qmult = (file=../../../../../profiles/com_kvar_18291_pu.csv)

New Loadshape.com_kw_2361_pu npts= 35040 interval=0.25 mult = (file=../../../../../profiles/com_kw_2361_pu.csv) qmult = (file=../../../../../profiles/com_kvar_2361_pu.csv)

New Loadshape.com_kw_41678_pu npts= 35040 interval=0.25 mult = (file=../../../../../profiles/com_kw_41678_pu.csv) qmult = (file=../../../../../profiles/com_kvar_41678_pu.csv)

New Loadshape.com_kw_41601_pu npts= 35040 interval=0.25 mult = (file=../../../../../profiles/com_kw_41601_pu.csv) qmult = (file=../../../../../profiles/com_kvar_41601_pu.csv)

New Loadshape.com_kw_2638_pu npts= 35040 interval=0.25 mult = (file=../../../../../profiles/com_kw_2638_pu.csv) qmult = (file=../../../../../profiles/com_kvar_2638_pu.csv)

New Loadshape.com_kw_1701_pu npts= 35040 interval=0.25 mult = (file=../../../../../profiles/com_kw_1701_pu.csv) qmult = (file=../../../../../profiles/com_kvar_1701_pu.csv)

New Loadshape.com_kw_2581_pu npts= 35040 interval=0.25 mult = (file=../../../../../profiles/com_kw_2581_pu.csv) qmult = (file=../../../../../profiles/com_kvar_2581_pu.csv)

New Loadshape.com_kw_29342_pu npts= 35040 interval=0.25 mult = (file=../../../../../profiles/com_kw_29342_pu.csv) qmult = (file=../../../../../profiles/com_kvar_29342_pu.csv)

New Loadshape.com_kw_41589_pu npts= 35040 interval=0.25 mult = (file=../../../../../profiles/com_kw_41589_pu.csv) qmult = (file=../../../../../profiles/com_kvar_41589_pu.csv)

New Loadshape.com_kw_39437_pu npts= 35040 interval=0.25 mult = (file=../../../../../profiles/com_kw_39437_pu.csv) qmult = (file=../../../../../profiles/com_kvar_39437_pu.csv)

New Loadshape.com_kw_29023_pu npts= 35040 interval=0.25 mult = (file=../../../../../profiles/com_kw_29023_pu.csv) qmult = (file=../../../../../profiles/com_kvar_29023_pu.csv)

New Loadshape.com_kw_33792_pu npts= 35040 interval=0.25 mult = (file=../../../../../profiles/com_kw_33792_pu.csv) qmult = (file=../../../../../profiles/com_kvar_33792_pu.csv)

New Loadshape.com_kw_41529_pu npts= 35040 interval=0.25 mult = (file=../../../../../profiles/com_kw_41529_pu.csv) qmult = (file=../../../../../profiles/com_kvar_41529_pu.csv)

New Loadshape.com_kw_39818_pu npts= 35040 interval=0.25 mult = (file=../../../../../profiles/com_kw_39818_pu.csv) qmult = (file=../../../../../profiles/com_kvar_39818_pu.csv)

New Loadshape.com_kw_33727_pu npts= 35040 interval=0.25 mult = (file=../../../../../profiles/com_kw_33727_pu.csv) qmult = (file=../../../../../profiles/com_kvar_33727_pu.csv)

New Loadshape.com_kw_17135_pu npts= 35040 interval=0.25 mult = (file=../../../../../profiles/com_kw_17135_pu.csv) qmult = (file=../../../../../profiles/com_kvar_17135_pu.csv)

New Loadshape.com_kw_39239_pu npts= 35040 interval=0.25 mult = (file=../../../../../profiles/com_kw_39239_pu.csv) qmult = (file=../../../../../profiles/com_kvar_39239_pu.csv)

New Loadshape.com_kw_28978_pu npts= 35040 interval=0.25 mult = (file=../../../../../profiles/com_kw_28978_pu.csv) qmult = (file=../../../../../profiles/com_kvar_28978_pu.csv)

New Loadshape.com_kw_28990_pu npts= 35040 interval=0.25 mult = (file=../../../../../profiles/com_kw_28990_pu.csv) qmult = (file=../../../../../profiles/com_kvar_28990_pu.csv)

New Loadshape.com_kw_17036_pu npts= 35040 interval=0.25 mult = (file=../../../../../profiles/com_kw_17036_pu.csv) qmult = (file=../../../../../profiles/com_kvar_17036_pu.csv)

New Loadshape.com_kw_19420_pu npts= 35040 interval=0.25 mult = (file=../../../../../profiles/com_kw_19420_pu.csv) qmult = (file=../../../../../profiles/com_kvar_19420_pu.csv)

New Loadshape.com_kw_2456_pu npts= 35040 interval=0.25 mult = (file=../../../../../profiles/com_kw_2456_pu.csv) qmult = (file=../../../../../profiles/com_kvar_2456_pu.csv)

New Loadshape.com_kw_35521_pu npts= 35040 interval=0.25 mult = (file=../../../../../profiles/com_kw_35521_pu.csv) qmult = (file=../../../../../profiles/com_kvar_35521_pu.csv)

New Loadshape.com_kw_2027_pu npts= 35040 interval=0.25 mult = (file=../../../../../profiles/com_kw_2027_pu.csv) qmult = (file=../../../../../profiles/com_kvar_2027_pu.csv)

New Loadshape.com_kw_39258_pu npts= 35040 interval=0.25 mult = (file=../../../../../profiles/com_kw_39258_pu.csv) qmult = (file=../../../../../profiles/com_kvar_39258_pu.csv)

New Loadshape.com_kw_2430_pu npts= 35040 interval=0.25 mult = (file=../../../../../profiles/com_kw_2430_pu.csv) qmult = (file=../../../../../profiles/com_kvar_2430_pu.csv)

New Loadshape.com_kw_8366_pu npts= 35040 interval=0.25 mult = (file=../../../../../profiles/com_kw_8366_pu.csv) qmult = (file=../../../../../profiles/com_kvar_8366_pu.csv)

New Loadshape.com_kw_21014_pu npts= 35040 interval=0.25 mult = (file=../../../../../profiles/com_kw_21014_pu.csv) qmult = (file=../../../../../profiles/com_kvar_21014_pu.csv)

New Loadshape.com_kw_1282_pu npts= 35040 interval=0.25 mult = (file=../../../../../profiles/com_kw_1282_pu.csv) qmult = (file=../../../../../profiles/com_kvar_1282_pu.csv)

New Loadshape.com_kw_31524_pu npts= 35040 interval=0.25 mult = (file=../../../../../profiles/com_kw_31524_pu.csv) qmult = (file=../../../../../profiles/com_kvar_31524_pu.csv)

New Loadshape.com_kw_34334_pu npts= 35040 interval=0.25 mult = (file=../../../../../profiles/com_kw_34334_pu.csv) qmult = (file=../../../../../profiles/com_kvar_34334_pu.csv)

New Loadshape.com_kw_17443_pu npts= 35040 interval=0.25 mult = (file=../../../../../profiles/com_kw_17443_pu.csv) qmult = (file=../../../../../profiles/com_kvar_17443_pu.csv)

New Loadshape.com_kw_32249_pu npts= 35040 interval=0.25 mult = (file=../../../../../profiles/com_kw_32249_pu.csv) qmult = (file=../../../../../profiles/com_kvar_32249_pu.csv)

New Loadshape.com_kw_35578_pu npts= 35040 interval=0.25 mult = (file=../../../../../profiles/com_kw_35578_pu.csv) qmult = (file=../../../../../profiles/com_kvar_35578_pu.csv)

New Loadshape.com_kw_32076_pu npts= 35040 interval=0.25 mult = (file=../../../../../profiles/com_kw_32076_pu.csv) qmult = (file=../../../../../profiles/com_kvar_32076_pu.csv)

New Loadshape.com_kw_20964_pu npts= 35040 interval=0.25 mult = (file=../../../../../profiles/com_kw_20964_pu.csv) qmult = (file=../../../../../profiles/com_kvar_20964_pu.csv)

New Loadshape.com_kw_22635_pu npts= 35040 interval=0.25 mult = (file=../../../../../profiles/com_kw_22635_pu.csv) qmult = (file=../../../../../profiles/com_kvar_22635_pu.csv)

New Loadshape.com_kw_17970_pu npts= 35040 interval=0.25 mult = (file=../../../../../profiles/com_kw_17970_pu.csv) qmult = (file=../../../../../profiles/com_kvar_17970_pu.csv)

New Loadshape.com_kw_1363_pu npts= 35040 interval=0.25 mult = (file=../../../../../profiles/com_kw_1363_pu.csv) qmult = (file=../../../../../profiles/com_kvar_1363_pu.csv)

New Loadshape.com_kw_18116_pu npts= 35040 interval=0.25 mult = (file=../../../../../profiles/com_kw_18116_pu.csv) qmult = (file=../../../../../profiles/com_kvar_18116_pu.csv)

New Loadshape.com_kw_1324_pu npts= 35040 interval=0.25 mult = (file=../../../../../profiles/com_kw_1324_pu.csv) qmult = (file=../../../../../profiles/com_kvar_1324_pu.csv)

New Loadshape.com_kw_41612_pu npts= 35040 interval=0.25 mult = (file=../../../../../profiles/com_kw_41612_pu.csv) qmult = (file=../../../../../profiles/com_kvar_41612_pu.csv)

New Loadshape.com_kw_17204_pu npts= 35040 interval=0.25 mult = (file=../../../../../profiles/com_kw_17204_pu.csv) qmult = (file=../../../../../profiles/com_kvar_17204_pu.csv)

New Loadshape.com_kw_34315_pu npts= 35040 interval=0.25 mult = (file=../../../../../profiles/com_kw_34315_pu.csv) qmult = (file=../../../../../profiles/com_kvar_34315_pu.csv)

New Loadshape.com_kw_29330_pu npts= 35040 interval=0.25 mult = (file=../../../../../profiles/com_kw_29330_pu.csv) qmult = (file=../../../../../profiles/com_kvar_29330_pu.csv)

New Loadshape.com_kw_16207_pu npts= 35040 interval=0.25 mult = (file=../../../../../profiles/com_kw_16207_pu.csv) qmult = (file=../../../../../profiles/com_kvar_16207_pu.csv)

New Loadshape.com_kw_16425_pu npts= 35040 interval=0.25 mult = (file=../../../../../profiles/com_kw_16425_pu.csv) qmult = (file=../../../../../profiles/com_kvar_16425_pu.csv)

New Loadshape.com_kw_31831_pu npts= 35040 interval=0.25 mult = (file=../../../../../profiles/com_kw_31831_pu.csv) qmult = (file=../../../../../profiles/com_kvar_31831_pu.csv)

New Loadshape.com_kw_41658_pu npts= 35040 interval=0.25 mult = (file=../../../../../profiles/com_kw_41658_pu.csv) qmult = (file=../../../../../profiles/com_kvar_41658_pu.csv)

New Loadshape.com_kw_39131_pu npts= 35040 interval=0.25 mult = (file=../../../../../profiles/com_kw_39131_pu.csv) qmult = (file=../../../../../profiles/com_kvar_39131_pu.csv)

New Loadshape.com_kw_33434_pu npts= 35040 interval=0.25 mult = (file=../../../../../profiles/com_kw_33434_pu.csv) qmult = (file=../../../../../profiles/com_kvar_33434_pu.csv)

New Loadshape.com_kw_32244_pu npts= 35040 interval=0.25 mult = (file=../../../../../profiles/com_kw_32244_pu.csv) qmult = (file=../../../../../profiles/com_kvar_32244_pu.csv)

New Loadshape.com_kw_16870_pu npts= 35040 interval=0.25 mult = (file=../../../../../profiles/com_kw_16870_pu.csv) qmult = (file=../../../../../profiles/com_kvar_16870_pu.csv)

New Loadshape.com_kw_16252_pu npts= 35040 interval=0.25 mult = (file=../../../../../profiles/com_kw_16252_pu.csv) qmult = (file=../../../../../profiles/com_kvar_16252_pu.csv)

New Loadshape.com_kw_16753_pu npts= 35040 interval=0.25 mult = (file=../../../../../profiles/com_kw_16753_pu.csv) qmult = (file=../../../../../profiles/com_kvar_16753_pu.csv)

New Loadshape.com_kw_2251_pu npts= 35040 interval=0.25 mult = (file=../../../../../profiles/com_kw_2251_pu.csv) qmult = (file=../../../../../profiles/com_kvar_2251_pu.csv)

New Loadshape.com_kw_8566_pu npts= 35040 interval=0.25 mult = (file=../../../../../profiles/com_kw_8566_pu.csv) qmult = (file=../../../../../profiles/com_kvar_8566_pu.csv)

New Loadshape.com_kw_32053_pu npts= 35040 interval=0.25 mult = (file=../../../../../profiles/com_kw_32053_pu.csv) qmult = (file=../../../../../profiles/com_kvar_32053_pu.csv)

New Loadshape.com_kw_29184_pu npts= 35040 interval=0.25 mult = (file=../../../../../profiles/com_kw_29184_pu.csv) qmult = (file=../../../../../profiles/com_kvar_29184_pu.csv)

New Loadshape.com_kw_35438_pu npts= 35040 interval=0.25 mult = (file=../../../../../profiles/com_kw_35438_pu.csv) qmult = (file=../../../../../profiles/com_kvar_35438_pu.csv)

New Loadshape.com_kw_1115_pu npts= 35040 interval=0.25 mult = (file=../../../../../profiles/com_kw_1115_pu.csv) qmult = (file=../../../../../profiles/com_kvar_1115_pu.csv)

New Loadshape.com_kw_17083_pu npts= 35040 interval=0.25 mult = (file=../../../../../profiles/com_kw_17083_pu.csv) qmult = (file=../../../../../profiles/com_kvar_17083_pu.csv)

New Loadshape.com_kw_41699_pu npts= 35040 interval=0.25 mult = (file=../../../../../profiles/com_kw_41699_pu.csv) qmult = (file=../../../../../profiles/com_kvar_41699_pu.csv)

New Loadshape.com_kw_31691_pu npts= 35040 interval=0.25 mult = (file=../../../../../profiles/com_kw_31691_pu.csv) qmult = (file=../../../../../profiles/com_kvar_31691_pu.csv)

New Loadshape.com_kw_29383_pu npts= 35040 interval=0.25 mult = (file=../../../../../profiles/com_kw_29383_pu.csv) qmult = (file=../../../../../profiles/com_kvar_29383_pu.csv)

New Loadshape.com_kw_41383_pu npts= 35040 interval=0.25 mult = (file=../../../../../profiles/com_kw_41383_pu.csv) qmult = (file=../../../../../profiles/com_kvar_41383_pu.csv)

